data/pglib_opf_case1951_rte_storage.m
%%%%%%%%%%%%%%%%%%%%%%%%%%%%%%%%%%%%%%%%%%%%%%%%%%%%%%%%%%%%%%%%%%%%%%%%%%%
%%%%                                                                  %%%%%
%%%%    IEEE PES Power Grid Library - Optimal Power Flow - v23.07     %%%%%
%%%%          (https://github.com/power-grid-lib/pglib-opf)           %%%%%
%%%%               Benchmark Group - Typical Operations               %%%%%
%%%%                         23 - July - 2023                         %%%%%
%%%%                                                                  %%%%%
%%%%%%%%%%%%%%%%%%%%%%%%%%%%%%%%%%%%%%%%%%%%%%%%%%%%%%%%%%%%%%%%%%%%%%%%%%%
%
%CASE1951RTE
%   AC Power flow data for French system.
%   Please see CASEFORMAT for details on the case file format.
%
%   This case accurately represents the size and complexity of French
%   very high voltage transmission network.
%   Part of this data was sampled in the offline platform of iTesla.
%   These data can be used to validate mathematical methods and tools.
%   These data should NOT be used for operation
%   nor planning of the French or European grids.
%
%   When publishing results using this data, please cite:
%     C. Josz, S. Fliscounakis, J. Maeght, and P. Panciatici,
%     "AC Power Flow Data in MATPOWER and QCQP Format: iTesla, RTE Snapshots, and PEGASE"
%     http://arxiv.org/abs/1603.01533
%
%   Contacts (primary contact for this file : Jean Maeght):
%   Cédric Josz, Stéphane Fliscounakis, Jean Maeght, Patrick Panciatici
%   firstname.lastname@rte-france.com
%   Réseau de Transport d'Electricité (French Transmission System Operator)
%   Département Expertise Système, Immeuble "Le Colbert"
%   9 rue de la Porte de Buc, 78000 Versailles Cedex, France
%   March 4th, 2016
%
%   Copyright (c) 2016 by Cédric Josz, Stéphane Fliscounakis, Jean Maeght,
%   and Patrick Panciatici
%   Licensed under the Creative Commons Attribution 4.0 International license,
%   http://creativecommons.org/licenses/by/4.0/
%
% Modified to have additional storage capacity and increased gencost
function mpc = pglib_opf_case1951_rte
mpc.version = '2';
mpc.baseMVA = 100.0;

%% bus data
%	bus_i	type	Pd	Qd	Gs	Bs	area	Vm	Va	baseKV	zone	Vmax	Vmin
mpc.bus = [
	1	 1	 36.4	 19.5	 0.0	 0.0	 1	    0.98889	    0.00000	 225.0	 1	    1.08889	    0.88889;
	2	 1	 0.0	 0.0	 0.0	 0.0	 1	    1.07552	    0.00000	 380.0	 1	    1.10263	    1.04841;
	3	 1	 245.2	 16.4	 0.0	 0.0	 1	    1.04444	    0.00000	 225.0	 1	    1.08444	    1.00444;
	4	 1	 0.0	 0.0	 0.0	 0.0	 1	    1.00334	    0.00000	 150.0	 1	    1.10667	    0.90000;
	5	 1	 51.8	 13.5	 0.0	 0.0	 1	    1.01111	    0.00000	 225.0	 1	    1.08889	    0.93333;
	6	 1	 36.6	 11.6	 0.0	 0.0	 1	    1.01111	    0.00000	 225.0	 1	    1.08889	    0.93333;
	7	 1	 0.0	 0.0	 0.0	 0.0	 1	    1.07237	    0.00000	 380.0	 1	    1.10526	    1.03947;
	8	 1	 0.0	 0.0	 0.0	 0.0	 1	    1.07237	    0.00000	 380.0	 1	    1.10526	    1.03947;
	9	 1	 0.0	 0.0	 0.0	 0.0	 1	    1.04739	    0.00000	 225.0	 1	    1.09035	    1.00444;
	10	 1	 193.4	 48.9	 0.0	 0.0	 1	    1.01111	    0.00000	 225.0	 1	    1.08889	    0.93333;
	11	 1	 57.7	 14.6	 0.0	 0.0	 1	    1.04666	    0.00000	 225.0	 1	    1.08889	    1.00444;
	12	 1	 27.8	 24.4	 0.0	 0.0	 1	    1.04666	    0.00000	 225.0	 1	    1.08889	    1.00444;
	13	 1	 177.5	 52.5	 0.0	 0.0	 1	    1.04666	    0.00000	 225.0	 1	    1.08889	    1.00444;
	14	 1	 75.8	 7.3	 0.0	 0.0	 1	    1.01626	    0.00000	 225.0	 1	    1.08252	    0.95000;
	15	 1	 0.0	 0.0	 0.0	 0.0	 1	    1.04666	    0.00000	 225.0	 1	    1.08889	    1.00444;
	16	 1	 0.0	 0.0	 0.0	 0.0	 1	    1.04666	    0.00000	 225.0	 1	    1.08889	    1.00444;
	17	 1	 66.2	 0.9	 0.0	 0.0	 1	    0.98889	    0.00000	 225.0	 1	    1.08889	    0.88889;
	18	 1	 12.3	 7.1	 0.0	 0.0	 1	    1.04150	    0.00000	 225.0	 1	    1.09633	    0.98667;
	19	 1	 67.9	 23.0	 0.0	 0.0	 1	    1.04666	    0.00000	 225.0	 1	    1.08889	    1.00444;
	20	 1	 29.2	 7.2	 0.0	 0.0	 1	    1.04666	    0.00000	 225.0	 1	    1.08889	    1.00444;
	21	 1	 77.8	 31.2	 0.0	 0.0	 1	    1.04666	    0.00000	 225.0	 1	    1.08889	    1.00444;
	22	 1	 105.6	 22.8	 0.0	 0.0	 1	    1.03778	    0.00000	 225.0	 1	    1.08889	    0.98667;
	23	 1	 41.1	 2.7	 0.0	 0.0	 1	    0.98889	    0.00000	 225.0	 1	    1.08889	    0.88889;
	25	 1	 56.2	 8.1	 0.0	 0.0	 1	    1.04666	    0.00000	 225.0	 1	    1.08444	    1.00889;
	26	 1	 29.3	 6.4	 0.0	 0.0	 1	    1.04666	    0.00000	 225.0	 1	    1.08444	    1.00889;
	27	 1	 102.1	 38.0	 0.0	 0.0	 1	    1.01111	    0.00000	 225.0	 1	    1.08889	    0.93333;
	28	 1	 172.1	 40.0	 0.0	 0.0	 1	    1.04666	    0.00000	 225.0	 1	    1.08889	    1.00444;
	29	 1	 0.0	 0.0	 0.0	 0.0	 1	    1.07684	    0.00000	 380.0	 1	    1.10526	    1.04842;
	30	 1	 0.0	 0.0	 0.0	 0.0	 1	    1.07684	    0.00000	 380.0	 1	    1.10526	    1.04842;
	31	 1	 36.2	 31.7	 0.0	 0.0	 1	    1.04666	    0.00000	 225.0	 1	    1.08444	    1.00889;
	33	 1	 133.2	 20.1	 0.0	 0.0	 1	    1.04666	    0.00000	 225.0	 1	    1.08444	    1.00889;
	34	 1	 89.4	 29.6	 0.0	 0.0	 1	    1.04666	    0.00000	 225.0	 1	    1.08889	    1.00444;
	2013	 1	 0.0	 0.0	 0.0	 0.0	 1	    1.04666	    0.00000	 225.0	 1	    1.08889	    1.00444;
	35	 1	 10.3	 -0.4	 0.0	 0.0	 1	    1.02333	    0.00000	 150.0	 1	    1.08000	    0.96667;
	36	 1	 22.3	 6.7	 0.0	 80.0	 1	    1.04606	    0.00000	 225.0	 1	    1.09212	    1.00000;
	37	 1	 0.0	 0.0	 0.0	 0.0	 1	    1.07655	    0.00000	 380.0	 1	    1.10526	    1.04785;
	38	 1	 144.2	 18.9	 0.0	 0.0	 1	    1.03778	    0.00000	 225.0	 1	    1.08889	    0.98667;
	39	 1	 117.8	 31.5	 0.0	 0.0	 1	    1.02889	    0.00000	 225.0	 1	    1.08889	    0.96889;
	40	 1	 194.8	 53.6	 0.0	 0.0	 1	    1.05263	    0.00000	 380.0	 1	    1.10526	    1.00000;
	41	 1	 64.7	 12.6	 0.0	 0.0	 1	    1.01111	    0.00000	 225.0	 1	    1.08889	    0.93333;
	42	 1	 44.6	 15.6	 0.0	 0.0	 1	    0.98889	    0.00000	 225.0	 1	    1.08889	    0.88889;
	43	 1	 46.9	 11.7	 0.0	 0.0	 1	    0.98889	    0.00000	 225.0	 1	    1.08889	    0.88889;
	44	 1	 381.3	 62.5	 0.0	 0.0	 1	    1.04470	    0.00000	 225.0	 1	    1.08496	    1.00444;
	45	 1	 161.5	 -38.5	 0.0	 0.0	 1	    1.04666	    0.00000	 225.0	 1	    1.08889	    1.00444;
	46	 2	 0.0	 0.0	 0.0	 0.0	 1	    1.00422	    0.00000	 150.0	 1	    1.10843	    0.90000;
	47	 1	 0.0	 0.0	 0.0	 0.0	 1	    1.04666	    0.00000	 225.0	 1	    1.08889	    1.00444;
	48	 1	 0.0	 0.0	 0.0	 0.0	 1	    1.04666	    0.00000	 225.0	 1	    1.08889	    1.00444;
	49	 1	 123.5	 43.4	 0.0	 0.0	 1	    1.04666	    0.00000	 225.0	 1	    1.08889	    1.00444;
	50	 1	 10.0	 3.7	 0.0	 0.0	 1	    1.04666	    0.00000	 225.0	 1	    1.08889	    1.00444;
	51	 1	 0.0	 0.0	 0.0	 0.0	 1	    1.04445	    0.00000	 225.0	 1	    1.08889	    1.00000;
	52	 1	 74.6	 28.0	 0.0	 0.0	 1	    0.98889	    0.00000	 225.0	 1	    1.08889	    0.88889;
	53	 1	 160.2	 38.2	 0.0	 0.0	 1	    1.02889	    0.00000	 225.0	 1	    1.08889	    0.96889;
	54	 1	 0.0	 0.0	 0.0	 0.0	 1	    1.05263	    0.00000	 380.0	 1	    1.10526	    1.00000;
	55	 1	 31.0	 11.0	 0.0	 0.0	 1	    1.04666	    0.00000	 225.0	 1	    1.08444	    1.00889;
	56	 1	 14.7	 -1.0	 0.0	 0.0	 1	    1.04666	    0.00000	 225.0	 1	    1.08444	    1.00889;
	1827	 1	 201.2	 11.7	 0.0	 0.0	 1	    1.04666	    0.00000	 225.0	 1	    1.08889	    1.00444;
	57	 1	 57.0	 3.0	 0.0	 0.0	 1	    1.01139	    0.00000	 225.0	 1	    1.08945	    0.93333;
	58	 2	 0.0	 0.0	 0.0	 0.0	 1	    1.00431	    0.00000	 150.0	 1	    1.10862	    0.90000;
	59	 1	 55.4	 19.7	 0.0	 0.0	 1	    1.04666	    0.00000	 225.0	 1	    1.08444	    1.00889;
	60	 1	 55.7	 41.6	 0.0	 0.0	 1	    1.04666	    0.00000	 225.0	 1	    1.08444	    1.00889;
	61	 1	 0.0	 0.0	 0.0	 0.0	 1	    1.03333	    0.00000	 225.0	 1	    1.08889	    0.97778;
	62	 1	 16.4	 4.9	 0.0	 0.0	 1	    0.98889	    0.00000	 225.0	 1	    1.08889	    0.88889;
	63	 1	 1.6	 12.7	 0.0	 0.0	 1	    1.01111	    0.00000	 225.0	 1	    1.08889	    0.93333;
	64	 1	 29.7	 12.0	 0.0	 0.0	 1	    1.04666	    0.00000	 225.0	 1	    1.08889	    1.00444;
	65	 1	 54.7	 13.6	 0.0	 0.0	 1	    1.04666	    0.00000	 225.0	 1	    1.08889	    1.00444;
	66	 1	 -21.9	 -5.1	 0.0	 0.0	 1	    1.04445	    0.00000	 225.0	 1	    1.08889	    1.00000;
	67	 1	 29.2	 -2.5	 0.0	 0.0	 1	    1.03778	    0.00000	 225.0	 1	    1.08889	    0.98667;
	68	 1	 0.0	 0.0	 0.0	 80.0	 1	    0.98889	    0.00000	 225.0	 1	    1.08889	    0.88889;
	69	 1	 0.0	 0.0	 0.0	 0.0	 1	    0.98889	    0.00000	 225.0	 1	    1.08889	    0.88889;
	70	 1	 0.0	 0.0	 0.0	 0.0	 1	    1.05921	    0.00000	 380.0	 1	    1.10526	    1.01316;
	71	 1	 76.3	 14.3	 0.0	 0.0	 1	    1.04666	    0.00000	 225.0	 1	    1.08889	    1.00444;
	72	 1	 29.0	 5.0	 0.0	 0.0	 1	    1.04666	    0.00000	 225.0	 1	    1.08889	    1.00444;
	73	 1	 0.0	 0.0	 0.0	 0.0	 1	    1.03333	    0.00000	 225.0	 1	    1.08889	    0.97778;
	74	 1	 0.0	 0.0	 0.0	 0.0	 1	    1.03333	    0.00000	 225.0	 1	    1.08889	    0.97778;
	75	 1	 182.4	 31.2	 0.0	 0.0	 1	    1.04666	    0.00000	 225.0	 1	    1.08444	    1.00889;
	76	 1	 0.0	 0.0	 0.0	 0.0	 1	    1.04444	    0.00000	 225.0	 1	    1.08444	    1.00444;
	77	 1	 0.0	 0.0	 0.0	 0.0	 1	    1.07237	    0.00000	 380.0	 1	    1.10263	    1.04211;
	78	 1	 116.1	 17.6	 0.0	 0.0	 1	    1.04444	    0.00000	 225.0	 1	    1.08444	    1.00444;
	79	 1	 -7.4	 0.9	 0.0	 0.0	 1	    1.04690	    0.00000	 225.0	 1	    1.08936	    1.00444;
	80	 1	 14.0	 12.6	 0.0	 0.0	 1	    1.04690	    0.00000	 225.0	 1	    1.08936	    1.00444;
	81	 1	 48.7	 2.9	 0.0	 0.0	 1	    0.98889	    0.00000	 225.0	 1	    1.08889	    0.88889;
	82	 1	 27.9	 3.3	 0.0	 0.0	 1	    1.01562	    0.00000	 225.0	 1	    1.08124	    0.95000;
	83	 1	 61.9	 19.7	 0.0	 0.0	 1	    0.98889	    0.00000	 225.0	 1	    1.08889	    0.88889;
	84	 1	 158.1	 -16.5	 0.0	 0.0	 1	    1.04445	    0.00000	 225.0	 1	    1.08889	    1.00000;
	85	 1	 0.0	 0.0	 0.0	 0.0	 1	    1.04445	    0.00000	 225.0	 1	    1.08889	    1.00000;
	86	 1	 403.7	 124.8	 0.0	 0.0	 1	    1.07798	    0.00000	 380.0	 1	    1.10526	    1.05070;
	87	 1	 108.6	 44.4	 0.0	 0.0	 1	    1.04445	    0.00000	 225.0	 1	    1.08889	    1.00000;
	88	 1	 140.7	 36.8	 0.0	 0.0	 1	    1.04445	    0.00000	 225.0	 1	    1.08889	    1.00000;
	89	 2	 0.0	 0.0	 0.0	 0.0	 1	    1.00000	    0.00000	 150.0	 1	    1.10000	    0.90000;
	90	 1	 56.6	 23.2	 0.0	 0.0	 1	    1.03778	    0.00000	 225.0	 1	    1.08889	    0.98667;
	91	 1	 12.5	 6.1	 0.0	 0.0	 1	    1.04666	    0.00000	 225.0	 1	    1.08444	    1.00889;
	92	 1	 0.0	 0.0	 0.0	 0.0	 1	    1.07369	    0.00000	 380.0	 1	    1.10526	    1.04211;
	93	 1	 0.0	 0.0	 0.0	 0.0	 1	    1.07369	    0.00000	 380.0	 1	    1.10526	    1.04211;
	96	 1	 12.7	 0.6	 0.0	 0.0	 1	    1.04445	    0.00000	 225.0	 1	    1.08889	    1.00000;
	97	 1	 18.3	 11.1	 0.0	 0.0	 1	    1.04666	    0.00000	 225.0	 1	    1.08889	    1.00444;
	98	 1	 90.8	 9.6	 0.0	 0.0	 1	    1.00000	    0.00000	 150.0	 1	    1.10000	    0.90000;
	99	 1	 82.1	 -2.6	 0.0	 0.0	 1	    1.04445	    0.00000	 225.0	 1	    1.08889	    1.00000;
	100	 2	 1.3	 0.0	 0.0	 0.0	 1	    1.01647	    0.00000	 225.0	 1	    1.08294	    0.95000;
	101	 1	 0.0	 0.0	 0.0	 0.0	 1	    1.01111	    0.00000	 225.0	 1	    1.08889	    0.93333;
	102	 1	 0.0	 0.0	 0.0	 0.0	 1	    1.07237	    0.00000	 380.0	 1	    1.10526	    1.03947;
	103	 1	 0.0	 0.0	 0.0	 0.0	 1	    1.07237	    0.00000	 380.0	 1	    1.10526	    1.03947;
	104	 1	 0.0	 0.0	 0.0	 0.0	 1	    1.04666	    0.00000	 225.0	 1	    1.08889	    1.00444;
	1828	 1	 86.9	 24.6	 0.0	 0.0	 1	    1.04666	    0.00000	 225.0	 1	    1.08889	    1.00444;
	105	 1	 0.0	 0.0	 0.0	 0.0	 1	    1.03778	    0.00000	 225.0	 1	    1.08889	    0.98667;
	106	 1	 12.8	 7.6	 0.0	 0.0	 1	    1.04666	    0.00000	 225.0	 1	    1.08889	    1.00444;
	107	 1	 150.1	 27.1	 0.0	 0.0	 1	    1.01111	    0.00000	 225.0	 1	    1.08889	    0.93333;
	108	 1	 0.0	 0.0	 0.0	 0.0	 1	    1.07237	    0.00000	 380.0	 1	    1.10526	    1.03947;
	109	 1	 32.1	 -1.6	 0.0	 0.0	 1	    1.04445	    0.00000	 225.0	 1	    1.08889	    1.00000;
	110	 1	 29.4	 1.2	 0.0	 0.0	 1	    1.04715	    0.00000	 225.0	 1	    1.08986	    1.00444;
	111	 1	 131.9	 2.8	 0.0	 0.0	 1	    1.04806	    0.00000	 225.0	 1	    1.09612	    1.00000;
	112	 1	 174.9	 55.6	 0.0	 0.0	 1	    1.03778	    0.00000	 225.0	 1	    1.08889	    0.98667;
	113	 1	 129.6	 33.2	 0.0	 0.0	 1	    1.04740	    0.00000	 225.0	 1	    1.09036	    1.00444;
	114	 1	 245.6	 120.6	 0.0	 0.0	 1	    1.00667	    0.00000	 225.0	 1	    1.08889	    0.92444;
	115	 1	 82.1	 14.7	 0.0	 0.0	 1	    1.04140	    0.00000	 225.0	 1	    1.09614	    0.98667;
	117	 1	 0.0	 0.0	 0.0	 0.0	 1	    1.07237	    0.00000	 380.0	 1	    1.10526	    1.03947;
	119	 1	 192.0	 -29.8	 0.0	 0.0	 1	    1.04444	    0.00000	 225.0	 1	    1.08444	    1.00444;
	120	 1	 21.6	 -16.9	 0.0	 0.0	 1	    1.04666	    0.00000	 225.0	 1	    1.08444	    1.00889;
	121	 1	 0.0	 0.0	 0.0	 0.0	 1	    1.06579	    0.00000	 380.0	 1	    1.10263	    1.02895;
	122	 1	 -0.1	 -4.2	 0.0	 0.0	 1	    1.01111	    0.00000	 225.0	 1	    1.08889	    0.93333;
	123	 1	 172.6	 37.2	 0.0	 0.0	 1	    1.01111	    0.00000	 225.0	 1	    1.08889	    0.93333;
	124	 1	 31.9	 29.8	 0.0	 0.0	 1	    1.00000	    0.00000	 63.0	 1	    1.07937	    0.92063;
	125	 2	 0.0	 0.0	 0.0	 0.0	 1	    1.01238	    0.00000	 225.0	 1	    1.07476	    0.95000;
	126	 1	 4.4	 5.3	 0.0	 0.0	 1	    1.04884	    0.00000	 225.0	 1	    1.09768	    1.00000;
	127	 1	 0.0	 0.0	 0.0	 0.0	 1	    1.07895	    0.00000	 380.0	 1	    1.10526	    1.05263;
	128	 1	 0.0	 0.0	 0.0	 0.0	 1	    1.07895	    0.00000	 380.0	 1	    1.10526	    1.05263;
	129	 1	 0.0	 0.0	 0.0	 0.0	 1	    1.07895	    0.00000	 380.0	 1	    1.10526	    1.05263;
	130	 1	 0.0	 0.0	 0.0	 0.0	 1	    1.07895	    0.00000	 380.0	 1	    1.10526	    1.05263;
	131	 1	 0.0	 0.0	 0.0	 0.0	 1	    1.04156	    0.00000	 225.0	 1	    1.09645	    0.98667;
	132	 1	 0.0	 0.0	 0.0	 0.0	 1	    1.04156	    0.00000	 225.0	 1	    1.09645	    0.98667;
	133	 1	 0.0	 0.0	 0.0	 0.0	 1	    1.07237	    0.00000	 380.0	 1	    1.10526	    1.03947;
	134	 1	 123.5	 26.5	 0.0	 0.0	 1	    1.02889	    0.00000	 225.0	 1	    1.08889	    0.96889;
	135	 1	 39.1	 10.1	 0.0	 0.0	 1	    1.04666	    0.00000	 225.0	 1	    1.08444	    1.00889;
	136	 1	 4.4	 -3.3	 0.0	 0.0	 1	    1.07237	    0.00000	 380.0	 1	    1.10526	    1.03947;
	137	 1	 166.9	 46.7	 0.0	 0.0	 1	    1.01111	    0.00000	 225.0	 1	    1.08889	    0.93333;
	138	 1	 0.0	 0.0	 0.0	 0.0	 1	    1.07237	    0.00000	 380.0	 1	    1.10526	    1.03947;
	140	 1	 202.0	 20.2	 0.0	 0.0	 1	    1.04666	    0.00000	 225.0	 1	    1.08444	    1.00889;
	142	 1	 231.3	 -18.3	 0.0	 0.0	 1	    1.04444	    0.00000	 225.0	 1	    1.08444	    1.00444;
	143	 1	 49.3	 7.8	 0.0	 0.0	 1	    1.01111	    0.00000	 225.0	 1	    1.08889	    0.93333;
	144	 1	 40.6	 10.3	 0.0	 0.0	 1	    1.01111	    0.00000	 225.0	 1	    1.08889	    0.93333;
	145	 1	 49.8	 -6.2	 0.0	 0.0	 1	    1.04698	    0.00000	 225.0	 1	    1.08952	    1.00444;
	146	 1	 0.0	 0.0	 0.0	 0.0	 1	    1.04739	    0.00000	 225.0	 1	    1.09478	    1.00000;
	147	 1	 0.0	 0.0	 0.0	 0.0	 1	    1.04739	    0.00000	 225.0	 1	    1.09478	    1.00000;
	148	 1	 68.7	 4.5	 0.0	 0.0	 1	    1.04445	    0.00000	 225.0	 1	    1.08889	    1.00000;
	149	 1	 30.0	 -1.5	 0.0	 0.0	 1	    1.04666	    0.00000	 225.0	 1	    1.08889	    1.00444;
	150	 1	 52.2	 3.9	 0.0	 0.0	 1	    1.04666	    0.00000	 225.0	 1	    1.08444	    1.00889;
	151	 1	 40.2	 6.8	 0.0	 0.0	 1	    1.04445	    0.00000	 225.0	 1	    1.08889	    1.00000;
	152	 1	 0.0	 0.0	 0.0	 0.0	 1	    1.04666	    0.00000	 225.0	 1	    1.08444	    1.00889;
	153	 1	 0.0	 0.0	 0.0	 0.0	 1	    1.04666	    0.00000	 225.0	 1	    1.08444	    1.00889;
	154	 1	 0.0	 0.0	 0.0	 0.0	 1	    1.04666	    0.00000	 225.0	 1	    1.08444	    1.00889;
	155	 1	 0.0	 0.0	 0.0	 0.0	 1	    1.06579	    0.00000	 380.0	 1	    1.10263	    1.02895;
	156	 1	 165.9	 38.2	 0.0	 0.0	 1	    0.98889	    0.00000	 225.0	 1	    1.08889	    0.88889;
	157	 1	 0.0	 0.0	 0.0	 0.0	 1	    1.04883	    0.00000	 225.0	 1	    1.09766	    1.00000;
	158	 1	 0.0	 0.0	 0.0	 0.0	 1	    1.07895	    0.00000	 380.0	 1	    1.10526	    1.05263;
	159	 1	 37.1	 -0.1	 0.0	 0.0	 1	    1.03778	    0.00000	 225.0	 1	    1.08889	    0.98667;
	160	 1	 17.9	 14.6	 0.0	 0.0	 1	    1.04445	    0.00000	 225.0	 1	    1.08889	    1.00000;
	161	 1	 0.0	 0.0	 0.0	 0.0	 1	    1.04444	    0.00000	 225.0	 1	    1.08444	    1.00444;
	162	 1	 0.0	 0.0	 0.0	 0.0	 1	    1.04444	    0.00000	 225.0	 1	    1.08444	    1.00444;
	163	 1	 0.0	 0.0	 0.0	 0.0	 1	    1.04444	    0.00000	 225.0	 1	    1.08444	    1.00444;
	164	 1	 96.9	 -7.4	 0.0	 0.0	 1	    1.04444	    0.00000	 225.0	 1	    1.08444	    1.00444;
	165	 1	 0.0	 0.0	 0.0	 0.0	 1	    1.01111	    0.00000	 225.0	 1	    1.08889	    0.93333;
	166	 1	 8.5	 -5.2	 0.0	 0.0	 1	    1.03778	    0.00000	 225.0	 1	    1.08889	    0.98667;
	167	 1	 0.0	 0.0	 0.0	 0.0	 1	    1.04470	    0.00000	 225.0	 1	    1.08941	    1.00000;
	168	 1	 0.0	 0.0	 0.0	 0.0	 1	    1.07895	    0.00000	 380.0	 1	    1.10526	    1.05263;
	169	 2	 0.0	 0.0	 0.0	 0.0	 1	    1.00000	    0.00000	 225.0	 1	    1.10000	    0.90000;
	170	 1	 13.0	 4.0	 0.0	 0.0	 1	    1.02333	    0.00000	 150.0	 1	    1.08000	    0.96667;
	171	 1	 50.4	 4.5	 0.0	 0.0	 1	    1.04666	    0.00000	 225.0	 1	    1.08889	    1.00444;
	172	 1	 0.4	 0.6	 0.0	 0.0	 1	    1.04666	    0.00000	 225.0	 1	    1.08889	    1.00444;
	173	 1	 29.1	 -7.9	 0.0	 0.0	 1	    0.98889	    0.00000	 225.0	 1	    1.08889	    0.88889;
	175	 1	 0.0	 0.0	 0.0	 0.0	 1	    1.04588	    0.00000	 225.0	 1	    1.09176	    1.00000;
	176	 1	 0.0	 0.0	 0.0	 0.0	 1	    1.04588	    0.00000	 225.0	 1	    1.09176	    1.00000;
	177	 1	 0.0	 0.0	 0.0	 0.0	 1	    1.04588	    0.00000	 225.0	 1	    1.09176	    1.00000;
	178	 1	 0.0	 0.0	 0.0	 0.0	 1	    1.04588	    0.00000	 225.0	 1	    1.09176	    1.00000;
	179	 1	 0.0	 0.0	 0.0	 0.0	 1	    1.04588	    0.00000	 225.0	 1	    1.09176	    1.00000;
	180	 2	 0.0	 0.0	 0.0	 0.0	 1	    1.00338	    0.00000	 380.0	 1	    1.10676	    0.90000;
	181	 1	 181.5	 39.9	 0.0	 0.0	 1	    1.04445	    0.00000	 225.0	 1	    1.08889	    1.00000;
	182	 1	 32.0	 21.4	 0.0	 0.0	 1	    1.03778	    0.00000	 225.0	 1	    1.08889	    0.98667;
	183	 1	 0.0	 0.0	 0.0	 0.0	 1	    1.07237	    0.00000	 380.0	 1	    1.10526	    1.03947;
	184	 1	 0.0	 0.0	 0.0	 0.0	 1	    1.07237	    0.00000	 380.0	 1	    1.10526	    1.03947;
	185	 1	 0.0	 0.0	 0.0	 0.0	 1	    1.07237	    0.00000	 380.0	 1	    1.10526	    1.03947;
	186	 1	 0.0	 0.0	 0.0	 0.0	 1	    1.07237	    0.00000	 380.0	 1	    1.10526	    1.03947;
	187	 1	 65.9	 23.3	 0.0	 0.0	 1	    1.00667	    0.00000	 225.0	 1	    1.08889	    0.92444;
	188	 1	 5.4	 1.4	 0.0	 0.0	 1	    1.03778	    0.00000	 225.0	 1	    1.08889	    0.98667;
	189	 1	 101.7	 -4.3	 0.0	 0.0	 1	    1.04444	    0.00000	 225.0	 1	    1.08444	    1.00444;
	190	 1	 -6.8	 -0.2	 0.0	 0.0	 1	    1.07237	    0.00000	 380.0	 1	    1.10263	    1.04211;
	191	 1	 -5.3	 -0.0	 0.0	 0.0	 1	    1.07237	    0.00000	 380.0	 1	    1.10263	    1.04211;
	192	 1	 0.0	 0.0	 0.0	 0.0	 1	    1.04666	    0.00000	 225.0	 1	    1.08889	    1.00444;
	193	 1	 0.0	 0.0	 0.0	 0.0	 1	    1.03333	    0.00000	 225.0	 1	    1.08889	    0.97778;
	194	 1	 0.0	 0.0	 0.0	 0.0	 1	    1.03333	    0.00000	 225.0	 1	    1.08889	    0.97778;
	195	 1	 135.5	 19.2	 0.0	 0.0	 1	    1.02889	    0.00000	 225.0	 1	    1.08889	    0.96889;
	196	 1	 0.0	 0.0	 0.0	 0.0	 1	    1.01111	    0.00000	 225.0	 1	    1.08889	    0.93333;
	197	 1	 0.0	 0.0	 0.0	 0.0	 1	    1.01111	    0.00000	 225.0	 1	    1.08889	    0.93333;
	198	 1	 98.9	 26.5	 0.0	 0.0	 1	    1.04444	    0.00000	 225.0	 1	    1.08444	    1.00444;
	199	 1	 299.2	 -25.2	 0.0	 0.0	 1	    1.04444	    0.00000	 225.0	 1	    1.08444	    1.00444;
	200	 1	 0.0	 0.0	 0.0	 0.0	 1	    1.03333	    0.00000	 225.0	 1	    1.08889	    0.97778;
	201	 1	 0.0	 0.0	 0.0	 0.0	 1	    1.04444	    0.00000	 225.0	 1	    1.08444	    1.00444;
	202	 1	 211.2	 31.0	 0.0	 0.0	 1	    1.02000	    0.00000	 225.0	 1	    1.08889	    0.95111;
	203	 1	 89.7	 19.5	 0.0	 0.0	 1	    1.04666	    0.00000	 225.0	 1	    1.08889	    1.00444;
	204	 1	 92.2	 26.0	 0.0	 0.0	 1	    1.03778	    0.00000	 225.0	 1	    1.08889	    0.98667;
	205	 1	 29.6	 2.7	 0.0	 0.0	 1	    1.04666	    0.00000	 225.0	 1	    1.08444	    1.00889;
	206	 1	 0.0	 0.0	 0.0	 0.0	 1	    1.06579	    0.00000	 380.0	 1	    1.10263	    1.02895;
...
];

%% generator data
%	bus	Pg	Qg	Qmax	Qmin	Vg	mBase	status	Pmax	Pmin
mpc.gen = [
	1268	 44.5	 9.0	 27.0	 -9.0	 1.01773	 100.0	 1	 45.0	 44.0; % NG
	1268	 44.5	 9.0	 27.0	 -9.0	 1.01773	 100.0	 1	 45.0	 44.0; % NG
	1356	 13.2	 -2.5	 7.0	 -12.0	 1.014075	 100.0	 1	 22.0	 4.4; % PEL
	89	 15.0	 2.0	 13.0	 -9.0	 1.0	 100.0	 1	 25.0	 5.0; % NG
	1837	 15.6	 -0.5	 16.0	 -17.0	 1.0	 100.0	 1	 26.0	 5.2; % NG
	1837	 15.6	 -0.5	 16.0	 -17.0	 1.0	 100.0	 1	 26.0	 5.2; % NG
	125	 14.04	 -4.5	 8.0	 -17.0	 1.01238	 100.0	 1	 23.4	 4.68; % PEL
	908	 12.0	 1.95	 2.0	 1.9	 1.004395	 100.0	 1	 20.0	 4.0; % PEL
	817	 7.2	 0.95	 1.0	 0.9	 1.004235	 100.0	 1	 12.0	 2.4; % PEL
	817	 8.4	 0.95	 1.0	 0.9	 1.004235	 100.0	 1	 14.0	 2.8; % NG
	817	 7.2	 0.95	 1.0	 0.9	 1.004235	 100.0	 1	 12.0	 2.4; % PEL
	1335	 18.0	 0.0	 10.0	 -10.0	 1.0	 100.0	 1	 30.0	 6.0; % NG
	396	 0.0	 0.0	 5.0	 1.0	 1.0	 100.0	 0	 11.0	 2.2; % NG
	396	 0.0	 0.0	 5.0	 1.0	 1.0	 100.0	 0	 11.0	 2.2; % NG
	975	 21.0	 0.0	 15.0	 -15.0	 1.0	 100.0	 1	 35.0	 7.0; % PEL
	858	 33.24	 0.0	 0.0	 0.0	 1.019305	 100.0	 1	 55.4	 11.08; % NG
	921	 25.2	 2.5	 25.0	 -20.0	 1.0	 100.0	 1	 42.0	 8.4; % NG
	921	 25.2	 2.5	 25.0	 -20.0	 1.0	 100.0	 1	 42.0	 8.4; % NG
	1255	 52.2	 0.87	 26.1	 -24.36	 1.01587	 100.0	 1	 87.0	 17.4; % NG
	169	 4.98	 0.0	 8.3	 -8.3	 1.0	 100.0	 1	 8.3	 1.66; % PEL
	448	 2.0	 0.0	 0.0	 0.0	 1.01761	 100.0	 1	 4.0	 0.0; % NG
	241	 0.0	 0.0	 5.0	 -5.0	 1.0	 100.0	 0	 13.0	 2.6; % PEL
	241	 0.0	 0.0	 5.0	 -5.0	 1.0	 100.0	 0	 13.0	 2.6; % PEL
	241	 0.0	 0.0	 5.0	 -5.0	 1.0	 100.0	 0	 13.0	 2.6; % COW
	241	 0.0	 0.0	 5.0	 -5.0	 1.0	 100.0	 0	 13.0	 2.6; % NG
	270	 30.0	 9.0	 27.0	 -9.0	 1.00923	 100.0	 1	 50.0	 10.0; % NG
	885	 4.8	 0.0	 0.0	 0.0	 1.018935	 100.0	 1	 8.0	 1.6; % COW
	885	 4.8	 0.0	 0.0	 0.0	 1.018935	 100.0	 1	 8.0	 1.6; % PEL
	876	 32.4	 0.0	 0.0	 0.0	 1.018115	 100.0	 1	 54.0	 10.8; % NG
	180	 143.4	 2.5	 80.0	 -75.0	 1.00338	 100.0	 1	 239.0	 47.8; % NG
	46	 18.0	 3.0	 10.0	 -4.0	 1.004215	 100.0	 1	 30.0	 6.0; % NG
	803	 8.28	 -0.465	 4.63	 -5.56	 1.012885	 100.0	 1	 13.8	 2.76; % PEL
	356	 24.84	 0.415	 12.42	 -11.59	 1.01705	 100.0	 1	 41.4	 8.28; % PEL
	100	 78.0	 16.5	 59.0	 -26.0	 1.01647	 100.0	 1	 130.0	 26.0; % NG
	707	 0.0	 0.0	 8.0	 -8.0	 1.0	 100.0	 0	 21.0	 4.2; % PEL
	973	 -4.0	 0.0	 0.0	 0.0	 1.01855	 100.0	 1	 0.0	 -8.0; % SYNC
	973	 31.8	 3.5	 17.0	 -10.0	 1.01855	 100.0	 1	 53.0	 10.6; % PEL
	1118	 33.0	 0.0	 0.0	 0.0	 1.013845	 100.0	 1	 55.0	 11.0; % NG
	897	 16.2	 3.5	 10.0	 -3.0	 1.0	 100.0	 1	 27.0	 5.4; % PEL
	897	 16.2	 3.5	 10.0	 -3.0	 1.0	 100.0	 1	 27.0	 5.4; % NG
	58	 3.6	 1.95	 2.0	 1.9	 1.00431	 100.0	 1	 6.0	 1.2; % NG
	82	 15.18	 0.0	 0.0	 0.0	 1.01562	 100.0	 1	 25.3	 5.06; % NG
	474	 31.2	 -1.5	 10.0	 -13.0	 1.015335	 100.0	 1	 52.0	 10.4; % NG
	1221	 34.8	 0.0	 35.0	 -35.0	 1.0	 100.0	 1	 58.0	 11.6; % PEL
	355	 0.0	 0.0	 40.0	 -40.0	 1.0	 100.0	 0	 62.0	 12.4; % NG
	471	 46.8	 0.5	 1.0	 0.0	 1.017105	 100.0	 1	 78.0	 15.6; % PEL
	1321	 6.6	 0.95	 1.0	 0.9	 1.004235	 100.0	 1	 11.0	 2.2; % NG
	1321	 0.01	 -0.0	 0.1	 -0.1	 1.004235	 100.0	 0	 2.5	 0.0; % PEL
	1829	 14.1	 0.0	 8.0	 -8.0	 1.014295	 100.0	 1	 23.5	 4.7; % NG
	1005	 23.4	 0.0	 19.0	 -19.0	 1.00521	 100.0	 1	 39.0	 7.8; % NG
	14	 16.56	 0.0	 0.0	 0.0	 1.01626	 100.0	 1	 27.6	 5.52; % NG
	14	 14.4	 0.0	 0.0	 0.0	 1.01626	 100.0	 1	 24.0	 4.8; % NG
	1628	 435.0	 -31.125	 155.3	 -217.55	 1.0	 100.0	 1	 670.0	 200.0; % COW
	1629	 420.0	 20.405	 231.39	 -190.58	 1.0	 100.0	 1	 700.0	 140.0; % PEL
	1842	 13.8	 2.23	 15.23	 -10.77	 1.0	 100.0	 1	 23.0	 4.6; % NG
	1843	 13.8	 2.06	 15.06	 -10.94	 1.0	 100.0	 1	 23.0	 4.6; % PEL
	1844	 16.2	 4.62	 24.62	 -15.38	 1.0077585	 100.0	 1	 27.0	 5.4; % NG
	1630	 51.6	 17.68	 43.86	 -8.5	 0.9887625	 100.0	 1	 86.0	 17.2; % NG
	1631	 29.4	 6.23	 22.19	 -9.73	 0.989957	 100.0	 1	 49.0	 9.8; % NG
	1845	 74.4	 20.86	 71.8	 -30.08	 1.0	 100.0	 1	 124.0	 24.8; % COW
	1846	 19.2	 0.0	 8.36	 -8.36	 1.0	 100.0	 1	 32.0	 6.4; % PEL
	1632	 19.2	 0.0	 8.36	 -8.36	 1.0	 100.0	 1	 32.0	 6.4; % PEL
	1847	 19.2	 -0.21	 8.15	 -8.57	 1.0	 100.0	 1	 32.0	 6.4; % NG
	1848	 19.2	 -0.21	 8.15	 -8.57	 1.0	 100.0	 1	 32.0	 6.4; % COW
	1849	 55.2	 10.77	 55.77	 -34.23	 1.0	 100.0	 1	 92.0	 18.4; % NG
	1850	 55.2	 5.5	 50.5	 -39.5	 1.0	 100.0	 1	 92.0	 18.4; % NG
	1851	 55.2	 11.32	 56.32	 -33.68	 1.0	 100.0	 1	 92.0	 18.4; % NG
	1852	 55.2	 9.57	 54.57	 -35.43	 1.0	 100.0	 1	 92.0	 18.4; % NG
	1853	 55.2	 10.26	 55.26	 -34.74	 1.0	 100.0	 1	 92.0	 18.4; % NG
	1854	 55.2	 11.48	 56.48	 -33.52	 1.0	 100.0	 1	 92.0	 18.4; % NG
	1633	 600.075	 22.385	 421.39	 -376.62	 1.001355	 100.0	 1	 945.08	 255.07; % NUC
	1634	 633.045	 29.81	 428.83	 -369.21	 1.000525	 100.0	 1	 978.04	 288.05; % COW
	1635	 616.08	 29.075	 428.07	 -369.92	 1.00053	 100.0	 1	 976.08	 256.08; % COW
	1636	 598.075	 21.865	 420.86	 -377.13	 1.0	 100.0	 1	 943.08	 253.07; % COW
	1637	 204.0	 31.4	 153.03	 -90.23	 1.0	 100.0	 1	 252.0	 156.0; % NG
	1638	 202.0	 30.815	 152.44	 -90.81	 1.0	 100.0	 1	 250.0	 154.0; % NG
	1639	 202.0	 23.7	 105.68	 -58.28	 1.0	 100.0	 1	 250.0	 154.0; % NG
	1640	 213.5	 34.45	 228.81	 -159.91	 1.0	 100.0	 1	 305.0	 122.0; % NG
	1641	 122.0	 9.84	 94.32	 -74.64	 1.003735	 100.0	 1	 155.0	 89.0; % NG
	1642	 34.8	 1.44	 21.65	 -18.77	 1.0	 100.0	 1	 58.0	 11.6; % PEL
	1643	 34.8	 2.675	 16.01	 -10.66	 1.0	 100.0	 1	 58.0	 11.6; % NG
	1855	 34.8	 1.26	 21.47	 -18.95	 1.0	 100.0	 1	 58.0	 11.6; % PEL
	1644	 34.8	 2.715	 16.05	 -10.62	 1.0	 100.0	 1	 58.0	 11.6; % NG
	1645	 34.8	 2.475	 15.81	 -10.86	 1.0	 100.0	 1	 58.0	 11.6; % NG
	1646	 198.0	 28.135	 146.45	 -90.18	 1.00036	 100.0	 1	 263.0	 133.0; % COW
	1647	 26.975	 6.29	 50.67	 -38.09	 1.0	 100.0	 1	 44.96	 8.99; % NG
	1856	 83.4	 18.44	 108.44	 -71.56	 1.0	 100.0	 1	 139.0	 27.8; % NG
	1857	 29.4	 4.32	 34.32	 -25.68	 0.99706	 100.0	 1	 49.0	 9.8; % NG
	1858	 29.4	 5.44	 55.44	 -44.56	 0.9918165	 100.0	 1	 49.0	 9.8; % NG
	1859	 29.4	 4.29	 34.29	 -25.71	 1.0	 100.0	 1	 49.0	 9.8; % NG
	2070	 29.4	 1.96	 31.96	 -28.04	 1.0	 100.0	 1	 49.0	 9.8; % COW
	1860	 19.2	 0.84	 18.84	 -17.16	 1.0	 100.0	 1	 32.0	 6.4; % PEL
	1861	 19.2	 1.75	 19.75	 -16.25	 1.0	 100.0	 1	 32.0	 6.4; % NG
	1648	 601.29	 186.38	 530.99	 -158.23	 0.990834	 100.0	 1	 936.29	 266.29; % NUC
	1649	 607.82	 188.81	 533.69	 -156.07	 0.9895395	 100.0	 1	 942.82	 272.82; % COW
	1650	 599.28	 192.43	 537.68	 -152.82	 0.9875395	 100.0	 1	 924.28	 274.28; % COW
	1651	 597.8	 184.5	 529.89	 -160.89	 0.994603	 100.0	 1	 922.8	 272.8; % COW
	1652	 813.0	 264.02	 681.04	 -153.0	 0.9975895	 100.0	 1	 1308.0	 318.0; % COW
	1862	 813.0	 264.015	 681.03	 -153.0	 0.99881	 100.0	 1	 1308.0	 318.0; % NG
	1653	 21.0	 2.08	 6.08	 -1.92	 1.0	 100.0	 1	 35.0	 7.0; % PEL
	1654	 21.0	 2.21	 6.21	 -1.79	 1.0	 100.0	 1	 35.0	 7.0; % NG
	1655	 21.0	 2.21	 6.21	 -1.79	 1.0	 100.0	 1	 35.0	 7.0; % PEL
	1656	 21.0	 2.11	 6.11	 -1.89	 1.0	 100.0	 1	 35.0	 7.0; % PEL
	1657	 21.0	 2.11	 6.11	 -1.89	 1.0	 100.0	 1	 35.0	 7.0; % NG
	1658	 21.0	 2.11	 6.11	 -1.89	 1.0	 100.0	 1	 35.0	 7.0; % NG
	1863	 22.18	 2.645	 18.45	 -13.16	 1.0	 100.0	 1	 36.97	 7.39; % PEL
	1659	 22.18	 2.645	 18.45	 -13.16	 1.0	 100.0	 1	 36.97	 7.39; % NG
	1660	 22.18	 3.55	 18.45	 -11.35	 1.0	 100.0	 1	 36.97	 7.39; % NG
	1661	 22.18	 3.205	 18.11	 -11.7	 1.0	 100.0	 1	 36.97	 7.39; % NG
	1662	 22.18	 2.4	 18.21	 -13.41	 1.0	 100.0	 1	 36.97	 7.39; % NG
	1663	 22.18	 2.75	 18.55	 -13.05	 1.0	 100.0	 1	 36.97	 7.39; % COW
	1864	 12.0	 0.54	 10.54	 -9.46	 1.0	 100.0	 1	 20.0	 4.0; % NG
	1865	 12.0	 2.32	 12.32	 -7.68	 1.0	 100.0	 1	 20.0	 4.0; % NG
	1866	 18.59	 2.03	 17.85	 -13.79	 1.0	 100.0	 1	 30.98	 6.2; % PEL
	1664	 18.59	 2.03	 17.85	 -13.79	 1.0	 100.0	 1	 30.98	 6.2; % PEL
	1665	 18.59	 2.195	 18.01	 -13.62	 1.0	 100.0	 1	 30.98	 6.2; % NG
	1867	 18.59	 2.195	 18.01	 -13.62	 1.0	 100.0	 1	 30.98	 6.2; % COW
	1666	 18.59	 2.07	 17.89	 -13.75	 1.0	 100.0	 1	 30.98	 6.2; % NG
	1868	 18.59	 1.915	 17.74	 -13.91	 1.0	 100.0	 1	 30.98	 6.2; % PEL
	1667	 833.5	 235.585	 656.06	 -184.89	 0.996488	 100.0	 1	 1330.0	 337.0; % COW
	1869	 913.5	 93.895	 515.51	 -327.72	 1.0	 100.0	 1	 1360.0	 467.0; % COW
	1668	 863.5	 236.51	 656.92	 -183.9	 0.995021	 100.0	 1	 1360.0	 367.0; % PEL
	1669	 863.5	 227.615	 648.03	 -192.8	 0.993275	 100.0	 1	 1360.0	 367.0; % COW
	1870	 54.0	 10.11	 60.11	 -39.89	 0.9994685	 100.0	 1	 90.0	 18.0; % NG
	1871	 0.0	 0.0	 59.33	 -40.67	 1.00442	 100.0	 0	 95.0	 19.0; % NG
	1872	 0.0	 0.0	 59.61	 -40.39	 1.0	 100.0	 0	 102.0	 20.4; % NG
	1670	 1.45	 88.775	 281.46	 -103.91	 1.0094195	 100.0	 1	 1.5	 1.4; % PEL
	1873	 144.0	 24.03	 94.03	 -45.97	 1.0	 100.0	 1	 240.0	 48.0; % NG
	1874	 144.0	 25.11	 95.11	 -44.89	 1.0	 100.0	 1	 240.0	 48.0; % NG
	1671	 587.72	 208.7	 524.6	 -107.2	 1.0	 100.0	 1	 942.72	 232.72; % COW
	1673	 598.74	 206.28	 511.64	 -99.08	 1.0	 100.0	 1	 953.74	 243.74; % NG
	1674	 597.74	 228.045	 555.41	 -99.32	 0.9995685	 100.0	 1	 952.74	 242.74; % COW
	1675	 953.0	 277.96	 682.28	 -126.36	 0.9996345	 100.0	 1	 1503.0	 403.0; % COW
	1676	 953.0	 282.755	 687.17	 -121.66	 1.00522	 100.0	 1	 1503.0	 403.0; % NUC
	1875	 948.0	 28.58	 409.45	 -352.29	 1.0	 100.0	 1	 1498.0	 398.0; % COW
	1677	 948.0	 28.545	 409.42	 -352.33	 1.0	 100.0	 1	 1498.0	 398.0; % COW
	1877	 45.0	 6.72	 51.88	 -38.44	 1.0	 100.0	 1	 75.0	 15.0; % PEL
	1878	 45.0	 6.72	 51.88	 -38.44	 1.0	 100.0	 1	 75.0	 15.0; % NG
	1678	 51.75	 21.36	 104.12	 -61.4	 1.0	 100.0	 1	 95.0	 8.5; % NG
	1679	 51.75	 21.18	 103.94	 -61.58	 1.0	 100.0	 1	 95.0	 8.5; % NG
	1680	 76.2	 38.01	 86.67	 -10.65	 1.0	 100.0	 1	 148.2	 4.2; % NG
	1681	 432.5	 80.525	 220.22	 -59.17	 1.0	 100.0	 1	 685.0	 180.0; % COW
	1682	 460.0	 82.52	 330.28	 -165.24	 0.9802185	 100.0	 1	 610.0	 310.0; % NG
	1683	 460.0	 52.92	 297.67	 -191.83	 0.980023	 100.0	 1	 610.0	 310.0; % COW
	1684	 452.5	 -19.415	 254.82	 -293.65	 1.0	 100.0	 1	 700.0	 205.0; % COW
	1880	 22.8	 -5.09	 16.85	 -27.03	 1.0	 100.0	 1	 38.0	 7.6; % PEL
	2045	 0.0	 0.0	 15.82	 -14.18	 1.0	 100.0	 0	 31.0	 6.2; % NG
	2081	 0.0	 0.0	 15.82	 -14.18	 1.0	 100.0	 0	 31.0	 6.2; % COW
	1881	 30.0	 0.9	 15.6	 -13.8	 1.0	 100.0	 1	 50.0	 10.0; % NG
	1882	 30.0	 0.5	 15.2	 -14.2	 1.0	 100.0	 1	 50.0	 10.0; % NG
	1685	 30.0	 1.105	 15.81	 -13.6	 1.0	 100.0	 1	 50.0	 10.0; % PEL
	1883	 30.0	 1.105	 15.81	 -13.6	 1.0	 100.0	 1	 50.0	 10.0; % NG
	1884	 30.0	 1.105	 15.81	 -13.6	 1.0	 100.0	 1	 50.0	 10.0; % NG
	1885	 30.0	 0.9	 15.6	 -13.8	 1.0	 100.0	 1	 50.0	 10.0; % NG
	1686	 640.0	 221.385	 532.91	 -90.14	 1.0	 100.0	 1	 1000.0	 280.0; % COW
	1687	 640.0	 223.92	 535.45	 -87.61	 1.0	 100.0	 1	 1000.0	 280.0; % NG
	1688	 640.0	 239.705	 567.71	 -88.3	 1.0	 100.0	 1	 1000.0	 280.0; % COW
	1689	 605.0	 231.155	 559.16	 -96.85	 1.0	 100.0	 1	 930.0	 280.0; % COW
	1886	 34.2	 -0.115	 17.23	 -17.46	 1.0	 100.0	 1	 57.0	 11.4; % NG
	1887	 34.2	 -1.88	 15.45	 -19.21	 1.0	 100.0	 1	 57.0	 11.4; % NG
	1888	 34.2	 0.0	 17.35	 -17.35	 1.0	 100.0	 1	 57.0	 11.4; % NG
	1690	 345.0	 32.025	 219.77	 -155.72	 0.9858785	 100.0	 1	 451.0	 239.0; % COW
	1691	 42.0	 20.31	 51.25	 -10.63	 1.0	 100.0	 1	 63.0	 21.0; % NG
	1692	 341.3	 37.96	 258.1	 -182.18	 1.01132	 100.0	 1	 433.8	 248.8; % NG
	1693	 124.99	 13.48	 71.21	 -44.25	 1.0	 100.0	 1	 168.17	 81.81; % NG
	1694	 125.44	 17.825	 73.34	 -37.69	 1.0	 100.0	 1	 168.6	 82.28; % NG
	1695	 151.06	 34.915	 113.53	 -43.7	 1.0	 100.0	 1	 248.21	 53.91; % NG
	1696	 141.03	 20.78	 100.92	 -59.36	 1.0	 100.0	 1	 238.09	 43.97; % NG
	1697	 574.69	 218.265	 525.14	 -88.61	 1.0	 100.0	 1	 919.69	 229.69; % NUC
	1698	 574.69	 218.265	 525.14	 -88.61	 1.0	 100.0	 1	 919.69	 229.69; % COW
	1699	 581.69	 219.89	 526.77	 -86.99	 1.0	 100.0	 1	 926.69	 236.69; % COW
	1700	 596.69	 223.405	 530.29	 -83.48	 1.0	 100.0	 1	 941.69	 251.69; % COW
	1701	 19.2	 0.32	 10.32	 -9.68	 1.0	 100.0	 1	 32.0	 6.4; % PEL
	1702	 23.93	 0.775	 19.22	 -17.67	 1.0	 100.0	 1	 39.88	 7.98; % NG
	1703	 23.93	 0.8	 19.34	 -17.74	 1.0	 100.0	 1	 39.88	 7.98; % NG
	1889	 23.93	 0.79	 19.24	 -17.66	 1.0	 100.0	 1	 39.88	 7.98; % NG
	1704	 860.0	 0.765	 398.39	 -396.86	 1.0	 100.0	 1	 1380.0	 340.0; % COW
	1705	 860.0	 -26.54	 371.08	 -424.16	 1.0	 100.0	 1	 1380.0	 340.0; % COW
	1890	 14.4	 1.39	 5.35	 -2.57	 1.0	 100.0	 1	 24.0	 4.8; % COW
	1891	 14.4	 1.525	 5.48	 -2.43	 1.0	 100.0	 1	 24.0	 4.8; % NG
	1892	 14.4	 1.035	 5.0	 -2.93	 1.0	 100.0	 1	 24.0	 4.8; % PEL
	1706	 14.4	 1.33	 5.29	 -2.63	 1.0	 100.0	 1	 24.0	 4.8; % PEL
	1893	 39.0	 5.48	 35.48	 -24.52	 1.0	 100.0	 1	 65.0	 13.0; % PEL
	1894	 42.0	 -3.075	 19.0	 -25.15	 1.0	 100.0	 1	 70.0	 14.0; % PEL
	1895	 40.2	 6.66	 51.66	 -38.34	 1.0	 100.0	 1	 67.0	 13.4; % PEL
	1896	 40.2	 8.39	 53.39	 -36.61	 1.0	 100.0	 1	 67.0	 13.4; % PEL
	1897	 42.0	 6.87	 36.87	 -23.13	 1.0	 100.0	 1	 70.0	 14.0; % PEL
	1707	 14.395	 2.51	 10.0	 -4.98	 1.0	 100.0	 1	 23.99	 4.8; % PEL
	1898	 14.395	 2.685	 10.17	 -4.8	 1.0	 100.0	 1	 23.99	 4.8; % PEL
	1899	 14.395	 2.765	 10.25	 -4.72	 1.0	 100.0	 1	 23.99	 4.8; % NG
	1708	 14.395	 1.805	 1.81	 1.8	 1.0	 100.0	 1	 23.99	 4.8; % PEL
	1709	 14.395	 2.675	 10.16	 -4.81	 1.0	 100.0	 1	 23.99	 4.8; % PEL
	1710	 17.39	 2.34	 12.23	 -7.55	 1.0	 100.0	 1	 28.98	 5.8; % NG
	1711	 17.39	 2.425	 12.31	 -7.46	 1.0	 100.0	 1	 28.98	 5.8; % NG
	1712	 798.0	 87.935	 615.09	 -439.22	 1.0	 100.0	 1	 1308.0	 288.0; % COW
	1713	 798.0	 87.48	 614.63	 -439.67	 1.001985	 100.0	 1	 1308.0	 288.0; % COW
	1900	 0.0	 0.0	 10.45	 -9.55	 1.0	 100.0	 0	 22.0	 4.4; % NG
	2017	 0.0	 0.0	 10.45	 -9.55	 1.0	 100.0	 0	 22.0	 4.4; % NG
	1714	 273.76	 85.9	 255.9	 -84.1	 1.01466	 100.0	 1	 458.26	 89.26; % NG
	1901	 21.6	 -3.285	 10.34	 -16.91	 1.0	 100.0	 1	 36.0	 7.2; % PEL
...
];

%% generator cost data
%	2	startup	shutdown	n	c(n-1)	...	c0
mpc.gencost = [
2	0.0	0.0	3	0.2	34.053198	0.000000;	%	NG
2	0.0	0.0	3	0.2	27.100144	0.000000;	%	NG
2	0.0	0.0	3	0.2	107.986054	0.000000;	%	PEL
2	0.0	0.0	3	0.2	54.120946	0.000000;	%	NG
2	0.0	0.0	3	0.2	2.931374	0.000000;	%	NG
2	0.0	0.0	3	0.2	40.036887	0.000000;	%	NG
2	0.0	0.0	3	0.2	122.524132	0.000000;	%	PEL
2	0.0	0.0	3	0.2	113.461611	0.000000;	%	PEL
2	0.0	0.0	3	0.2	101.828811	0.000000;	%	PEL
2	0.0	0.0	3	0.2	48.968308	0.000000;	%	NG
2	0.0	0.0	3	0.2	119.329141	0.000000;	%	PEL
2	0.0	0.0	3	0.2	28.509213	0.000000;	%	NG
2	0.0	0.0	3	0.2	38.618371	0.000000;	%	NG
2	0.0	0.0	3	0.2	22.781373	0.000000;	%	NG
2	0.0	0.0	3	0.2	96.342645	0.000000;	%	PEL
2	0.0	0.0	3	0.2	41.859705	0.000000;	%	NG
2	0.0	0.0	3	0.2	41.498978	0.000000;	%	NG
2	0.0	0.0	3	0.2	34.218254	0.000000;	%	NG
2	0.0	0.0	3	0.2	32.169640	0.000000;	%	NG
2	0.0	0.0	3	0.2	104.226032	0.000000;	%	PEL
2	0.0	0.0	3	0.2	28.074072	0.000000;	%	NG
2	0.0	0.0	3	0.2	104.597709	0.000000;	%	PEL
2	0.0	0.0	3	0.2	106.384472	0.000000;	%	PEL
2	0.0	0.0	3	0.2	20.791564	0.000000;	%	COW
2	0.0	0.0	3	0.2	25.695208	0.000000;	%	NG
2	0.0	0.0	3	0.2	37.644673	0.000000;	%	NG
2	0.0	0.0	3	0.2	19.054200	0.000000;	%	COW
2	0.0	0.0	3	0.2	107.769028	0.000000;	%	PEL
2	0.0	0.0	3	0.2	43.736707	0.000000;	%	NG
2	0.0	0.0	3	0.2	38.983247	0.000000;	%	NG
2	0.0	0.0	3	0.2	29.923701	0.000000;	%	NG
2	0.0	0.0	3	0.2	107.498076	0.000000;	%	PEL
2	0.0	0.0	3	0.2	118.435397	0.000000;	%	PEL
2	0.0	0.0	3	0.2	38.474122	0.000000;	%	NG
2	0.0	0.0	3	0.2	108.183844	0.000000;	%	PEL
	2	 0.0	 0.0	 3	   0.000000	   0.000000	   0.000000; % SYNC
2	0.0	0.0	3	0.2	114.563931	0.000000;	%	PEL
2	0.0	0.0	3	0.2	45.140076	0.000000;	%	NG
2	0.0	0.0	3	0.2	113.523586	0.000000;	%	PEL
2	0.0	0.0	3	0.2	40.666919	0.000000;	%	NG
2	0.0	0.0	3	0.2	53.621531	0.000000;	%	NG
2	0.0	0.0	3	0.2	29.658147	0.000000;	%	NG
2	0.0	0.0	3	0.2	26.946649	0.000000;	%	NG
2	0.0	0.0	3	0.2	102.486355	0.000000;	%	PEL
2	0.0	0.0	3	0.2	29.516190	0.000000;	%	NG
2	0.0	0.0	3	0.2	105.885449	0.000000;	%	PEL
2	0.0	0.0	3	0.2	31.512377	0.000000;	%	NG
2	0.0	0.0	3	0.2	100.216393	0.000000;	%	PEL
2	0.0	0.0	3	0.2	41.554458	0.000000;	%	NG
2	0.0	0.0	3	0.2	33.863712	0.000000;	%	NG
2	0.0	0.0	3	0.2	46.608056	0.000000;	%	NG
2	0.0	0.0	3	0.2	38.456913	0.000000;	%	NG
2	0.0	0.0	3	0.2	26.051058	0.000000;	%	COW
2	0.0	0.0	3	0.2	114.826646	0.000000;	%	PEL
2	0.0	0.0	3	0.2	39.101961	0.000000;	%	NG
2	0.0	0.0	3	0.2	117.337694	0.000000;	%	PEL
2	0.0	0.0	3	0.2	24.275715	0.000000;	%	NG
2	0.0	0.0	3	0.2	40.567720	0.000000;	%	NG
2	0.0	0.0	3	0.2	19.181730	0.000000;	%	NG
2	0.0	0.0	3	0.2	25.310926	0.000000;	%	COW
2	0.0	0.0	3	0.2	113.331255	0.000000;	%	PEL
2	0.0	0.0	3	0.2	113.555785	0.000000;	%	PEL
2	0.0	0.0	3	0.2	14.543877	0.000000;	%	NG
2	0.0	0.0	3	0.2	22.500032	0.000000;	%	COW
2	0.0	0.0	3	0.2	42.534977	0.000000;	%	NG
2	0.0	0.0	3	0.2	30.900147	0.000000;	%	NG
2	0.0	0.0	3	0.2	32.533161	0.000000;	%	NG
2	0.0	0.0	3	0.2	20.797422	0.000000;	%	NG
2	0.0	0.0	3	0.2	49.031321	0.000000;	%	NG
2	0.0	0.0	3	0.2	45.931566	0.000000;	%	NG
2	0.0	0.0	3	0.2	7.247199	0.000000;	%	NUC
2	0.0	0.0	3	0.2	36.087984	0.000000;	%	COW
2	0.0	0.0	3	0.2	29.932035	0.000000;	%	COW
2	0.0	0.0	3	0.2	29.324901	0.000000;	%	COW
2	0.0	0.0	3	0.2	31.268236	0.000000;	%	NG
2	0.0	0.0	3	0.2	38.769206	0.000000;	%	NG
2	0.0	0.0	3	0.2	37.547177	0.000000;	%	NG
2	0.0	0.0	3	0.2	53.524770	0.000000;	%	NG
2	0.0	0.0	3	0.2	28.154423	0.000000;	%	NG
2	0.0	0.0	3	0.2	116.082855	0.000000;	%	PEL
2	0.0	0.0	3	0.2	45.002853	0.000000;	%	NG
2	0.0	0.0	3	0.2	112.259854	0.000000;	%	PEL
2	0.0	0.0	3	0.2	32.308012	0.000000;	%	NG
2	0.0	0.0	3	0.2	34.881543	0.000000;	%	NG
2	0.0	0.0	3	0.2	15.472963	0.000000;	%	COW
2	0.0	0.0	3	0.2	33.455009	0.000000;	%	NG
2	0.0	0.0	3	0.2	27.942746	0.000000;	%	NG
2	0.0	0.0	3	0.2	48.515601	0.000000;	%	NG
2	0.0	0.0	3	0.2	36.619653	0.000000;	%	NG
2	0.0	0.0	3	0.2	48.018806	0.000000;	%	NG
2	0.0	0.0	3	0.2	10.056400	0.000000;	%	COW
2	0.0	0.0	3	0.2	104.536946	0.000000;	%	PEL
2	0.0	0.0	3	0.2	36.734785	0.000000;	%	NG
2	0.0	0.0	3	0.2	7.009011	0.000000;	%	NUC
2	0.0	0.0	3	0.2	22.429933	0.000000;	%	COW
2	0.0	0.0	3	0.2	18.950813	0.000000;	%	COW
2	0.0	0.0	3	0.2	21.782242	0.000000;	%	COW
2	0.0	0.0	3	0.2	24.616626	0.000000;	%	COW
2	0.0	0.0	3	0.2	12.675851	0.000000;	%	NG
2	0.0	0.0	3	0.2	113.083701	0.000000;	%	PEL
2	0.0	0.0	3	0.2	18.045214	0.000000;	%	NG
2	0.0	0.0	3	0.2	85.503188	0.000000;	%	PEL
2	0.0	0.0	3	0.2	124.808600	0.000000;	%	PEL
2	0.0	0.0	3	0.2	64.862844	0.000000;	%	NG
2	0.0	0.0	3	0.2	48.466773	0.000000;	%	NG
2	0.0	0.0	3	0.2	100.165449	0.000000;	%	PEL
2	0.0	0.0	3	0.2	57.914820	0.000000;	%	NG
2	0.0	0.0	3	0.2	27.752107	0.000000;	%	NG
2	0.0	0.0	3	0.2	45.630692	0.000000;	%	NG
2	0.0	0.0	3	0.2	50.523739	0.000000;	%	NG
2	0.0	0.0	3	0.2	30.240437	0.000000;	%	COW
2	0.0	0.0	3	0.2	32.688017	0.000000;	%	NG
2	0.0	0.0	3	0.2	41.471828	0.000000;	%	NG
2	0.0	0.0	3	0.2	115.064495	0.000000;	%	PEL
2	0.0	0.0	3	0.2	115.204206	0.000000;	%	PEL
2	0.0	0.0	3	0.2	41.470547	0.000000;	%	NG
2	0.0	0.0	3	0.2	33.772588	0.000000;	%	COW
2	0.0	0.0	3	0.2	30.689403	0.000000;	%	NG
2	0.0	0.0	3	0.2	122.430598	0.000000;	%	PEL
2	0.0	0.0	3	0.2	28.847748	0.000000;	%	COW
2	0.0	0.0	3	0.2	17.148809	0.000000;	%	COW
2	0.0	0.0	3	0.2	110.949041	0.000000;	%	PEL
2	0.0	0.0	3	0.2	14.654502	0.000000;	%	COW
2	0.0	0.0	3	0.2	39.717113	0.000000;	%	NG
2	0.0	0.0	3	0.2	37.378448	0.000000;	%	NG
2	0.0	0.0	3	0.2	32.568505	0.000000;	%	NG
2	0.0	0.0	3	0.2	102.486191	0.000000;	%	PEL
2	0.0	0.0	3	0.2	39.805400	0.000000;	%	NG
2	0.0	0.0	3	0.2	35.887695	0.000000;	%	NG
2	0.0	0.0	3	0.2	34.875888	0.000000;	%	COW
2	0.0	0.0	3	0.2	35.353185	0.000000;	%	NG
2	0.0	0.0	3	0.2	30.776665	0.000000;	%	COW
2	0.0	0.0	3	0.2	17.865819	0.000000;	%	COW
2	0.0	0.0	3	0.2	7.736606	0.000000;	%	NUC
2	0.0	0.0	3	0.2	23.730870	0.000000;	%	COW
2	0.0	0.0	3	0.2	19.615740	0.000000;	%	COW
2	0.0	0.0	3	0.2	126.364020	0.000000;	%	PEL
2	0.0	0.0	3	0.2	26.048613	0.000000;	%	NG
2	0.0	0.0	3	0.2	49.433678	0.000000;	%	NG
2	0.0	0.0	3	0.2	45.017624	0.000000;	%	NG
2	0.0	0.0	3	0.2	45.680453	0.000000;	%	NG
2	0.0	0.0	3	0.2	7.582360	0.000000;	%	COW
2	0.0	0.0	3	0.2	47.353316	0.000000;	%	NG
2	0.0	0.0	3	0.2	35.001368	0.000000;	%	COW
2	0.0	0.0	3	0.2	26.485192	0.000000;	%	COW
2	0.0	0.0	3	0.2	106.930470	0.000000;	%	PEL
2	0.0	0.0	3	0.2	45.776978	0.000000;	%	NG
2	0.0	0.0	3	0.2	22.341037	0.000000;	%	COW
2	0.0	0.0	3	0.2	31.772498	0.000000;	%	NG
2	0.0	0.0	3	0.2	46.691824	0.000000;	%	NG
2	0.0	0.0	3	0.2	112.101745	0.000000;	%	PEL
2	0.0	0.0	3	0.2	42.399562	0.000000;	%	NG
2	0.0	0.0	3	0.2	38.606710	0.000000;	%	NG
2	0.0	0.0	3	0.2	30.282845	0.000000;	%	NG
2	0.0	0.0	3	0.2	20.988765	0.000000;	%	COW
2	0.0	0.0	3	0.2	70.121914	0.000000;	%	NG
2	0.0	0.0	3	0.2	15.635881	0.000000;	%	COW
2	0.0	0.0	3	0.2	21.324090	0.000000;	%	COW
2	0.0	0.0	3	0.2	24.261790	0.000000;	%	NG
2	0.0	0.0	3	0.2	27.219473	0.000000;	%	NG
2	0.0	0.0	3	0.2	25.070571	0.000000;	%	NG
2	0.0	0.0	3	0.2	23.778376	0.000000;	%	COW
2	0.0	0.0	3	0.2	47.836592	0.000000;	%	NG
2	0.0	0.0	3	0.2	18.139403	0.000000;	%	NG
2	0.0	0.0	3	0.2	59.709961	0.000000;	%	NG
2	0.0	0.0	3	0.2	27.932728	0.000000;	%	NG
2	0.0	0.0	3	0.2	43.969640	0.000000;	%	NG
2	0.0	0.0	3	0.2	37.418251	0.000000;	%	NG
2	0.0	0.0	3	0.2	7.286141	0.000000;	%	NUC
2	0.0	0.0	3	0.2	21.977340	0.000000;	%	COW
2	0.0	0.0	3	0.2	32.524074	0.000000;	%	COW
2	0.0	0.0	3	0.2	30.301475	0.000000;	%	COW
2	0.0	0.0	3	0.2	102.658187	0.000000;	%	PEL
2	0.0	0.0	3	0.2	24.160659	0.000000;	%	NG
2	0.0	0.0	3	0.2	36.024239	0.000000;	%	NG
2	0.0	0.0	3	0.2	34.662110	0.000000;	%	NG
2	0.0	0.0	3	0.2	22.272332	0.000000;	%	COW
2	0.0	0.0	3	0.2	42.638448	0.000000;	%	COW
2	0.0	0.0	3	0.2	29.848201	0.000000;	%	COW
2	0.0	0.0	3	0.2	27.343104	0.000000;	%	NG
2	0.0	0.0	3	0.2	112.135998	0.000000;	%	PEL
2	0.0	0.0	3	0.2	105.755788	0.000000;	%	PEL
2	0.0	0.0	3	0.2	115.628595	0.000000;	%	PEL
2	0.0	0.0	3	0.2	98.927235	0.000000;	%	PEL
2	0.0	0.0	3	0.2	107.015504	0.000000;	%	PEL
2	0.0	0.0	3	0.2	105.511425	0.000000;	%	PEL
2	0.0	0.0	3	0.2	104.631348	0.000000;	%	PEL
2	0.0	0.0	3	0.2	97.368340	0.000000;	%	PEL
2	0.0	0.0	3	0.2	116.594277	0.000000;	%	PEL
2	0.0	0.0	3	0.2	38.730261	0.000000;	%	NG
2	0.0	0.0	3	0.2	92.857929	0.000000;	%	PEL
2	0.0	0.0	3	0.2	119.356585	0.000000;	%	PEL
2	0.0	0.0	3	0.2	16.916415	0.000000;	%	NG
2	0.0	0.0	3	0.2	43.167022	0.000000;	%	NG
2	0.0	0.0	3	0.2	12.660798	0.000000;	%	COW
2	0.0	0.0	3	0.2	29.479053	0.000000;	%	COW
2	0.0	0.0	3	0.2	16.495060	0.000000;	%	NG
2	0.0	0.0	3	0.2	18.330120	0.000000;	%	NG
2	0.0	0.0	3	0.2	33.426578	0.000000;	%	NG
2	0.0	0.0	3	0.2	108.787245	0.000000;	%	PEL
...
];

%% storage data
%	bus	energy	energy_rating	charge_rating	discharge_rating	thermal_rating	qmin	qmax	r	x	standby_loss	status
mpc.storage = [
	1820	0.0	0.0	1.00	1225.6500	612.8250	441.2340	0.9	0.85	1000	-1000	1000	0.1	0.01	0	0	1;
	1822	0.0	0.0	1.00	812.5500	406.2750	292.5180	0.9	0.85	1000	-1000	1000	0.1	0.01	0	0	1;
	1825	0.0	0.0	1.00	731.7000	365.8500	263.4120	0.9	0.85	1000	-1000	1000	0.1	0.01	0	0	1;
	1030	0.0	0.0	1.00	673.0500	336.5250	242.2980	0.9	0.85	1000	-1000	1000	0.1	0.01	0	0	1;
	977	0.0	0.0	1.00	668.8500	334.4250	240.7860	0.9	0.85	1000	-1000	1000	0.1	0.01	0	0	1;
	335	0.0	0.0	1.00	643.3500	321.6750	231.6060	0.9	0.85	1000	-1000	1000	0.1	0.01	0	0	1;
	618	0.0	0.0	1.00	612.3000	306.1500	220.4280	0.9	0.85	1000	-1000	1000	0.1	0.01	0	0	1;
	86	0.0	0.0	1.00	605.5500	302.7750	217.9980	0.9	0.85	1000	-1000	1000	0.1	0.01	0	0	1;
	846	0.0	0.0	1.00	587.7000	293.8500	211.5720	0.9	0.85	1000	-1000	1000	0.1	0.01	0	0	1;
	44	0.0	0.0	1.00	571.9500	285.9750	205.9020	0.9	0.85	1000	-1000	1000	0.1	0.01	0	0	1;
	705	0.0	0.0	1.00	542.8500	271.4250	195.4260	0.9	0.85	1000	-1000	1000	0.1	0.01	0	0	1;
	267	0.0	0.0	1.00	533.5500	266.7750	192.0780	0.9	0.85	1000	-1000	1000	0.1	0.01	0	0	1;
	303	0.0	0.0	1.00	514.0500	257.0250	185.0580	0.9	0.85	1000	-1000	1000	0.1	0.01	0	0	1;
	958	0.0	0.0	1.00	513.9000	256.9500	185.0040	0.9	0.85	1000	-1000	1000	0.1	0.01	0	0	1;
	556	0.0	0.0	1.00	508.9500	254.4750	183.2220	0.9	0.85	1000	-1000	1000	0.1	0.01	0	0	1;
	1285	0.0	0.0	1.00	504.4500	252.2250	181.6020	0.9	0.85	1000	-1000	1000	0.1	0.01	0	0	1;
	776	0.0	0.0	1.00	502.0500	251.0250	180.7380	0.9	0.85	1000	-1000	1000	0.1	0.01	0	0	1;
	1276	0.0	0.0	1.00	498.3000	249.1500	179.3880	0.9	0.85	1000	-1000	1000	0.1	0.01	0	0	1;
	1295	0.0	0.0	1.00	487.9500	243.9750	175.6620	0.9	0.85	1000	-1000	1000	0.1	0.01	0	0	1;
	972	0.0	0.0	1.00	486.7500	243.3750	175.2300	0.9	0.85	1000	-1000	1000	0.1	0.01	0	0	1;
	273	0.0	0.0	1.00	484.2000	242.1000	174.3120	0.9	0.85	1000	-1000	1000	0.1	0.01	0	0	1;
	1035	0.0	0.0	1.00	477.1500	238.5750	171.7740	0.9	0.85	1000	-1000	1000	0.1	0.01	0	0	1;
	295	0.0	0.0	1.00	476.4000	238.2000	171.5040	0.9	0.85	1000	-1000	1000	0.1	0.01	0	0	1;
	1052	0.0	0.0	1.00	471.0000	235.5000	169.5600	0.9	0.85	1000	-1000	1000	0.1	0.01	0	0	1;
	1303	0.0	0.0	1.00	466.0500	233.0250	167.7780	0.9	0.85	1000	-1000	1000	0.1	0.01	0	0	1;
	209	0.0	0.0	1.00	465.3000	232.6500	167.5080	0.9	0.85	1000	-1000	1000	0.1	0.01	0	0	1;
	698	0.0	0.0	1.00	463.9500	231.9750	167.0220	0.9	0.85	1000	-1000	1000	0.1	0.01	0	0	1;
	333	0.0	0.0	1.00	453.6000	226.8000	163.2960	0.9	0.85	1000	-1000	1000	0.1	0.01	0	0	1;
	1289	0.0	0.0	1.00	450.4500	225.2250	162.1620	0.9	0.85	1000	-1000	1000	0.1	0.01	0	0	1;
	1389	0.0	0.0	1.00	450.3000	225.1500	162.1080	0.9	0.85	1000	-1000	1000	0.1	0.01	0	0	1;
	199	0.0	0.0	1.00	448.8000	224.4000	161.5680	0.9	0.85	1000	-1000	1000	0.1	0.01	0	0	1;
	1806	0.0	0.0	1.00	447.3000	223.6500	161.0280	0.9	0.85	1000	-1000	1000	0.1	0.01	0	0	1;
	263	0.0	0.0	1.00	444.6000	222.3000	160.0560	0.9	0.85	1000	-1000	1000	0.1	0.01	0	0	1;
	712	0.0	0.0	1.00	440.7000	220.3500	158.6520	0.9	0.85	1000	-1000	1000	0.1	0.01	0	0	1;
	938	0.0	0.0	1.00	439.8000	219.9000	158.3280	0.9	0.85	1000	-1000	1000	0.1	0.01	0	0	1;
	398	0.0	0.0	1.00	439.3500	219.6750	158.1660	0.9	0.85	1000	-1000	1000	0.1	0.01	0	0	1;
	741	0.0	0.0	1.00	430.6500	215.3250	155.0340	0.9	0.85	1000	-1000	1000	0.1	0.01	0	0	1;
	933	0.0	0.0	1.00	430.3500	215.1750	154.9260	0.9	0.85	1000	-1000	1000	0.1	0.01	0	0	1;
	1183	0.0	0.0	1.00	418.3500	209.1750	150.6060	0.9	0.85	1000	-1000	1000	0.1	0.01	0	0	1;
	473	0.0	0.0	1.00	417.7500	208.8750	150.3900	0.9	0.85	1000	-1000	1000	0.1	0.01	0	0	1;
	1062	0.0	0.0	1.00	415.9500	207.9750	149.7420	0.9	0.85	1000	-1000	1000	0.1	0.01	0	0	1;
	448	0.0	0.0	1.00	406.8000	203.4000	146.4480	0.9	0.85	1000	-1000	1000	0.1	0.01	0	0	1;
	479	0.0	0.0	1.00	406.6500	203.3250	146.3940	0.9	0.85	1000	-1000	1000	0.1	0.01	0	0	1;
	1819	0.0	0.0	1.00	404.5500	202.2750	145.6380	0.9	0.85	1000	-1000	1000	0.1	0.01	0	0	1;
	1224	0.0	0.0	1.00	403.3500	201.6750	145.2060	0.9	0.85	1000	-1000	1000	0.1	0.01	0	0	1;
	569	0.0	0.0	1.00	399.0000	199.5000	143.6400	0.9	0.85	1000	-1000	1000	0.1	0.01	0	0	1;
	761	0.0	0.0	1.00	394.6500	197.3250	142.0740	0.9	0.85	1000	-1000	1000	0.1	0.01	0	0	1;
	990	0.0	0.0	1.00	389.2500	194.6250	140.1300	0.9	0.85	1000	-1000	1000	0.1	0.01	0	0	1;
	711	0.0	0.0	1.00	388.9500	194.4750	140.0220	0.9	0.85	1000	-1000	1000	0.1	0.01	0	0	1;
	1344	0.0	0.0	1.00	385.5000	192.7500	138.7800	0.9	0.85	1000	-1000	1000	0.1	0.01	0	0	1;
	1811	0.0	0.0	1.00	384.6000	192.3000	138.4560	0.9	0.85	1000	-1000	1000	0.1	0.01	0	0	1;
	280	0.0	0.0	1.00	379.9500	189.9750	136.7820	0.9	0.85	1000	-1000	1000	0.1	0.01	0	0	1;
	272	0.0	0.0	1.00	378.6000	189.3000	136.2960	0.9	0.85	1000	-1000	1000	0.1	0.01	0	0	1;
	1225	0.0	0.0	1.00	378.3000	189.1500	136.1880	0.9	0.85	1000	-1000	1000	0.1	0.01	0	0	1;
	517	0.0	0.0	1.00	376.2000	188.1000	135.4320	0.9	0.85	1000	-1000	1000	0.1	0.01	0	0	1;
	464	0.0	0.0	1.00	375.9000	187.9500	135.3240	0.9	0.85	1000	-1000	1000	0.1	0.01	0	0	1;
	991	0.0	0.0	1.00	375.6000	187.8000	135.2160	0.9	0.85	1000	-1000	1000	0.1	0.01	0	0	1;
	237	0.0	0.0	1.00	374.4000	187.2000	134.7840	0.9	0.85	1000	-1000	1000	0.1	0.01	0	0	1;
	114	0.0	0.0	1.00	368.4000	184.2000	132.6240	0.9	0.85	1000	-1000	1000	0.1	0.01	0	0	1;
	3	0.0	0.0	1.00	367.8000	183.9000	132.4080	0.9	0.85	1000	-1000	1000	0.1	0.01	0	0	1;
	740	0.0	0.0	1.00	363.6000	181.8000	130.8960	0.9	0.85	1000	-1000	1000	0.1	0.01	0	0	1;
	1355	0.0	0.0	1.00	359.1000	179.5500	129.2760	0.9	0.85	1000	-1000	1000	0.1	0.01	0	0	1;
	368	0.0	0.0	1.00	354.7500	177.3750	127.7100	0.9	0.85	1000	-1000	1000	0.1	0.01	0	0	1;
	1193	0.0	0.0	1.00	353.8500	176.9250	127.3860	0.9	0.85	1000	-1000	1000	0.1	0.01	0	0	1;
	142	0.0	0.0	1.00	346.9500	173.4750	124.9020	0.9	0.85	1000	-1000	1000	0.1	0.01	0	0	1;
	406	0.0	0.0	1.00	344.7000	172.3500	124.0920	0.9	0.85	1000	-1000	1000	0.1	0.01	0	0	1;
	1185	0.0	0.0	1.00	342.9000	171.4500	123.4440	0.9	0.85	1000	-1000	1000	0.1	0.01	0	0	1;
	674	0.0	0.0	1.00	342.1500	171.0750	123.1740	0.9	0.85	1000	-1000	1000	0.1	0.01	0	0	1;
	513	0.0	0.0	1.00	339.9000	169.9500	122.3640	0.9	0.85	1000	-1000	1000	0.1	0.01	0	0	1;
	607	0.0	0.0	1.00	337.5000	168.7500	121.5000	0.9	0.85	1000	-1000	1000	0.1	0.01	0	0	1;
	732	0.0	0.0	1.00	336.4500	168.2250	121.1220	0.9	0.85	1000	-1000	1000	0.1	0.01	0	0	1;
	1199	0.0	0.0	1.00	335.1000	167.5500	120.6360	0.9	0.85	1000	-1000	1000	0.1	0.01	0	0	1;
	660	0.0	0.0	1.00	329.4000	164.7000	118.5840	0.9	0.85	1000	-1000	1000	0.1	0.01	0	0	1;
	788	0.0	0.0	1.00	329.1000	164.5500	118.4760	0.9	0.85	1000	-1000	1000	0.1	0.01	0	0	1;
	1115	0.0	0.0	1.00	328.6500	164.3250	118.3140	0.9	0.85	1000	-1000	1000	0.1	0.01	0	0	1;
	1803	0.0	0.0	1.00	323.4000	161.7000	116.4240	0.9	0.85	1000	-1000	1000	0.1	0.01	0	0	1;
	919	0.0	0.0	1.00	321.7500	160.8750	115.8300	0.9	0.85	1000	-1000	1000	0.1	0.01	0	0	1;
	515	0.0	0.0	1.00	319.8000	159.9000	115.1280	0.9	0.85	1000	-1000	1000	0.1	0.01	0	0	1;
	414	0.0	0.0	1.00	319.0500	159.5250	114.8580	0.9	0.85	1000	-1000	1000	0.1	0.01	0	0	1;
	1206	0.0	0.0	1.00	318.7500	159.3750	114.7500	0.9	0.85	1000	-1000	1000	0.1	0.01	0	0	1;
	845	0.0	0.0	1.00	318.3000	159.1500	114.5880	0.9	0.85	1000	-1000	1000	0.1	0.01	0	0	1;
	1144	0.0	0.0	1.00	317.7000	158.8500	114.3720	0.9	0.85	1000	-1000	1000	0.1	0.01	0	0	1;
	202	0.0	0.0	1.00	316.8000	158.4000	114.0480	0.9	0.85	1000	-1000	1000	0.1	0.01	0	0	1;
	981	0.0	0.0	1.00	316.5000	158.2500	113.9400	0.9	0.85	1000	-1000	1000	0.1	0.01	0	0	1;
	1377	0.0	0.0	1.00	304.5000	152.2500	109.6200	0.9	0.85	1000	-1000	1000	0.1	0.01	0	0	1;
	140	0.0	0.0	1.00	303.0000	151.5000	109.0800	0.9	0.85	1000	-1000	1000	0.1	0.01	0	0	1;
	440	0.0	0.0	1.00	302.4000	151.2000	108.8640	0.9	0.85	1000	-1000	1000	0.1	0.01	0	0	1;
	1827	0.0	0.0	1.00	301.8000	150.9000	108.6480	0.9	0.85	1000	-1000	1000	0.1	0.01	0	0	1;
	1033	0.0	0.0	1.00	301.6500	150.8250	108.5940	0.9	0.85	1000	-1000	1000	0.1	0.01	0	0	1;
	1301	0.0	0.0	1.00	300.9000	150.4500	108.3240	0.9	0.85	1000	-1000	1000	0.1	0.01	0	0	1;
	950	0.0	0.0	1.00	298.5000	149.2500	107.4600	0.9	0.85	1000	-1000	1000	0.1	0.01	0	0	1;
	738	0.0	0.0	1.00	297.4500	148.7250	107.0820	0.9	0.85	1000	-1000	1000	0.1	0.01	0	0	1;
	468	0.0	0.0	1.00	294.9000	147.4500	106.1640	0.9	0.85	1000	-1000	1000	0.1	0.01	0	0	1;
	595	0.0	0.0	1.00	293.4000	146.7000	105.6240	0.9	0.85	1000	-1000	1000	0.1	0.01	0	0	1;
	40	0.0	0.0	1.00	292.2000	146.1000	105.1920	0.9	0.85	1000	-1000	1000	0.1	0.01	0	0	1;
	676	0.0	0.0	1.00	291.4500	145.7250	104.9220	0.9	0.85	1000	-1000	1000	0.1	0.01	0	0	1;
	10	0.0	0.0	1.00	290.1000	145.0500	104.4360	0.9	0.85	1000	-1000	1000	0.1	0.01	0	0	1;
	317	0.0	0.0	1.00	289.6500	144.8250	104.2740	0.9	0.85	1000	-1000	1000	0.1	0.01	0	0	1;
	261	0.0	0.0	1.00	289.0500	144.5250	104.0580	0.9	0.85	1000	-1000	1000	0.1	0.01	0	0	1;
	119	0.0	0.0	1.00	288.0000	144.0000	103.6800	0.9	0.85	1000	-1000	1000	0.1	0.01	0	0	1;
	1107	0.0	0.0	1.00	287.5500	143.7750	103.5180	0.9	0.85	1000	-1000	1000	0.1	0.01	0	0	1;
	354	0.0	0.0	1.00	286.5000	143.2500	103.1400	0.9	0.85	1000	-1000	1000	0.1	0.01	0	0	1;
	529	0.0	0.0	1.00	285.4500	142.7250	102.7620	0.9	0.85	1000	-1000	1000	0.1	0.01	0	0	1;
	409	0.0	0.0	1.00	283.0500	141.5250	101.8980	0.9	0.85	1000	-1000	1000	0.1	0.01	0	0	1;
	1050	0.0	0.0	1.00	282.9000	141.4500	101.8440	0.9	0.85	1000	-1000	1000	0.1	0.01	0	0	1;
	825	0.0	0.0	1.00	279.7500	139.8750	100.7100	0.9	0.85	1000	-1000	1000	0.1	0.01	0	0	1;
	584	0.0	0.0	1.00	279.4500	139.7250	100.6020	0.9	0.85	1000	-1000	1000	0.1	0.01	0	0	1;
	259	0.0	0.0	1.00	278.4000	139.2000	100.2240	0.9	0.85	1000	-1000	1000	0.1	0.01	0	0	1;
	670	0.0	0.0	1.00	277.0500	138.5250	99.7380	0.9	0.85	1000	-1000	1000	0.1	0.01	0	0	1;
	75	0.0	0.0	1.00	273.6000	136.8000	98.4960	0.9	0.85	1000	-1000	1000	0.1	0.01	0	0	1;
	734	0.0	0.0	1.00	273.6000	136.8000	98.4960	0.9	0.85	1000	-1000	1000	0.1	0.01	0	0	1;
	1044	0.0	0.0	1.00	273.4500	136.7250	98.4420	0.9	0.85	1000	-1000	1000	0.1	0.01	0	0	1;
	1189	0.0	0.0	1.00	273.0000	136.5000	98.2800	0.9	0.85	1000	-1000	1000	0.1	0.01	0	0	1;
	181	0.0	0.0	1.00	272.2500	136.1250	98.0100	0.9	0.85	1000	-1000	1000	0.1	0.01	0	0	1;
	1096	0.0	0.0	1.00	272.2500	136.1250	98.0100	0.9	0.85	1000	-1000	1000	0.1	0.01	0	0	1;
	1411	0.0	0.0	1.00	271.9500	135.9750	97.9020	0.9	0.85	1000	-1000	1000	0.1	0.01	0	0	1;
	227	0.0	0.0	1.00	270.6000	135.3000	97.4160	0.9	0.85	1000	-1000	1000	0.1	0.01	0	0	1;
	441	0.0	0.0	1.00	268.6500	134.3250	96.7140	0.9	0.85	1000	-1000	1000	0.1	0.01	0	0	1;
	1349	0.0	0.0	1.00	266.7000	133.3500	96.0120	0.9	0.85	1000	-1000	1000	0.1	0.01	0	0	1;
	13	0.0	0.0	1.00	266.2500	133.1250	95.8500	0.9	0.85	1000	-1000	1000	0.1	0.01	0	0	1;
	290	0.0	0.0	1.00	265.0500	132.5250	95.4180	0.9	0.85	1000	-1000	1000	0.1	0.01	0	0	1;
	112	0.0	0.0	1.00	262.3500	131.1750	94.4460	0.9	0.85	1000	-1000	1000	0.1	0.01	0	0	1;
	568	0.0	0.0	1.00	260.5500	130.2750	93.7980	0.9	0.85	1000	-1000	1000	0.1	0.01	0	0	1;
	1240	0.0	0.0	1.00	260.1000	130.0500	93.6360	0.9	0.85	1000	-1000	1000	0.1	0.01	0	0	1;
	1274	0.0	0.0	1.00	259.3500	129.6750	93.3660	0.9	0.85	1000	-1000	1000	0.1	0.01	0	0	1;
	325	0.0	0.0	1.00	259.0500	129.5250	93.2580	0.9	0.85	1000	-1000	1000	0.1	0.01	0	0	1;
	123	0.0	0.0	1.00	258.9000	129.4500	93.2040	0.9	0.85	1000	-1000	1000	0.1	0.01	0	0	1;
	626	0.0	0.0	1.00	258.9000	129.4500	93.2040	0.9	0.85	1000	-1000	1000	0.1	0.01	0	0	1;
	28	0.0	0.0	1.00	258.1500	129.0750	92.9340	0.9	0.85	1000	-1000	1000	0.1	0.01	0	0	1;
	1118	0.0	0.0	1.00	258.1500	129.0750	92.9340	0.9	0.85	1000	-1000	1000	0.1	0.01	0	0	1;
	252	0.0	0.0	1.00	257.8500	128.9250	92.8260	0.9	0.85	1000	-1000	1000	0.1	0.01	0	0	1;
	351	0.0	0.0	1.00	256.3500	128.1750	92.2860	0.9	0.85	1000	-1000	1000	0.1	0.01	0	0	1;
	1024	0.0	0.0	1.00	256.3500	128.1750	92.2860	0.9	0.85	1000	-1000	1000	0.1	0.01	0	0	1;
	1412	0.0	0.0	1.00	256.0500	128.0250	92.1780	0.9	0.85	1000	-1000	1000	0.1	0.01	0	0	1;
	1059	0.0	0.0	1.00	254.7000	127.3500	91.6920	0.9	0.85	1000	-1000	1000	0.1	0.01	0	0	1;
	610	0.0	0.0	1.00	253.8000	126.9000	91.3680	0.9	0.85	1000	-1000	1000	0.1	0.01	0	0	1;
	1197	0.0	0.0	1.00	253.8000	126.9000	91.3680	0.9	0.85	1000	-1000	1000	0.1	0.01	0	0	1;
	754	0.0	0.0	1.00	252.6000	126.3000	90.9360	0.9	0.85	1000	-1000	1000	0.1	0.01	0	0	1;
	544	0.0	0.0	1.00	251.1000	125.5500	90.3960	0.9	0.85	1000	-1000	1000	0.1	0.01	0	0	1;
	137	0.0	0.0	1.00	250.3500	125.1750	90.1260	0.9	0.85	1000	-1000	1000	0.1	0.01	0	0	1;
	1104	0.0	0.0	1.00	249.6000	124.8000	89.8560	0.9	0.85	1000	-1000	1000	0.1	0.01	0	0	1;
	156	0.0	0.0	1.00	248.8500	124.4250	89.5860	0.9	0.85	1000	-1000	1000	0.1	0.01	0	0	1;
	995	0.0	0.0	1.00	248.8500	124.4250	89.5860	0.9	0.85	1000	-1000	1000	0.1	0.01	0	0	1;
	715	0.0	0.0	1.00	246.6000	123.3000	88.7760	0.9	0.85	1000	-1000	1000	0.1	0.01	0	0	1;
	459	0.0	0.0	1.00	245.1000	122.5500	88.2360	0.9	0.85	1000	-1000	1000	0.1	0.01	0	0	1;
	416	0.0	0.0	1.00	244.6500	122.3250	88.0740	0.9	0.85	1000	-1000	1000	0.1	0.01	0	0	1;
	941	0.0	0.0	1.00	242.8500	121.4250	87.4260	0.9	0.85	1000	-1000	1000	0.1	0.01	0	0	1;
	45	0.0	0.0	1.00	242.2500	121.1250	87.2100	0.9	0.85	1000	-1000	1000	0.1	0.01	0	0	1;
	53	0.0	0.0	1.00	240.3000	120.1500	86.5080	0.9	0.85	1000	-1000	1000	0.1	0.01	0	0	1;
	609	0.0	0.0	1.00	239.7000	119.8500	86.2920	0.9	0.85	1000	-1000	1000	0.1	0.01	0	0	1;
	865	0.0	0.0	1.00	238.5000	119.2500	85.8600	0.9	0.85	1000	-1000	1000	0.1	0.01	0	0	1;
	713	0.0	0.0	1.00	237.6000	118.8000	85.5360	0.9	0.85	1000	-1000	1000	0.1	0.01	0	0	1;
	435	0.0	0.0	1.00	237.4500	118.7250	85.4820	0.9	0.85	1000	-1000	1000	0.1	0.01	0	0	1;
	853	0.0	0.0	1.00	237.4500	118.7250	85.4820	0.9	0.85	1000	-1000	1000	0.1	0.01	0	0	1;
	84	0.0	0.0	1.00	237.1500	118.5750	85.3740	0.9	0.85	1000	-1000	1000	0.1	0.01	0	0	1;
	911	0.0	0.0	1.00	237.1500	118.5750	85.3740	0.9	0.85	1000	-1000	1000	0.1	0.01	0	0	1;
	1808	0.0	0.0	1.00	236.4000	118.2000	85.1040	0.9	0.85	1000	-1000	1000	0.1	0.01	0	0	1;
	746	0.0	0.0	1.00	234.3000	117.1500	84.3480	0.9	0.85	1000	-1000	1000	0.1	0.01	0	0	1;
	632	0.0	0.0	1.00	233.1000	116.5500	83.9160	0.9	0.85	1000	-1000	1000	0.1	0.01	0	0	1;
	870	0.0	0.0	1.00	232.9500	116.4750	83.8620	0.9	0.85	1000	-1000	1000	0.1	0.01	0	0	1;
	1208	0.0	0.0	1.00	232.2000	116.1000	83.5920	0.9	0.85	1000	-1000	1000	0.1	0.01	0	0	1;
	923	0.0	0.0	1.00	231.9000	115.9500	83.4840	0.9	0.85	1000	-1000	1000	0.1	0.01	0	0	1;
	477	0.0	0.0	1.00	231.6000	115.8000	83.3760	0.9	0.85	1000	-1000	1000	0.1	0.01	0	0	1;
	658	0.0	0.0	1.00	231.3000	115.6500	83.2680	0.9	0.85	1000	-1000	1000	0.1	0.01	0	0	1;
	848	0.0	0.0	1.00	231.1500	115.5750	83.2140	0.9	0.85	1000	-1000	1000	0.1	0.01	0	0	1;
	887	0.0	0.0	1.00	230.4000	115.2000	82.9440	0.9	0.85	1000	-1000	1000	0.1	0.01	0	0	1;
	892	0.0	0.0	1.00	230.4000	115.2000	82.9440	0.9	0.85	1000	-1000	1000	0.1	0.01	0	0	1;
	444	0.0	0.0	1.00	229.2000	114.6000	82.5120	0.9	0.85	1000	-1000	1000	0.1	0.01	0	0	1;
	1241	0.0	0.0	1.00	228.6000	114.3000	82.2960	0.9	0.85	1000	-1000	1000	0.1	0.01	0	0	1;
	490	0.0	0.0	1.00	227.5500	113.7750	81.9180	0.9	0.85	1000	-1000	1000	0.1	0.01	0	0	1;
	1381	0.0	0.0	1.00	227.2500	113.6250	81.8100	0.9	0.85	1000	-1000	1000	0.1	0.01	0	0	1;
	795	0.0	0.0	1.00	226.9500	113.4750	81.7020	0.9	0.85	1000	-1000	1000	0.1	0.01	0	0	1;
	346	0.0	0.0	1.00	226.8000	113.4000	81.6480	0.9	0.85	1000	-1000	1000	0.1	0.01	0	0	1;
	1170	0.0	0.0	1.00	226.3500	113.1750	81.4860	0.9	0.85	1000	-1000	1000	0.1	0.01	0	0	1;
	1387	0.0	0.0	1.00	225.7500	112.8750	81.2700	0.9	0.85	1000	-1000	1000	0.1	0.01	0	0	1;
	107	0.0	0.0	1.00	225.1500	112.5750	81.0540	0.9	0.85	1000	-1000	1000	0.1	0.01	0	0	1;
	910	0.0	0.0	1.00	225.1500	112.5750	81.0540	0.9	0.85	1000	-1000	1000	0.1	0.01	0	0	1;
	896	0.0	0.0	1.00	223.8000	111.9000	80.5680	0.9	0.85	1000	-1000	1000	0.1	0.01	0	0	1;
	1329	0.0	0.0	1.00	222.6000	111.3000	80.1360	0.9	0.85	1000	-1000	1000	0.1	0.01	0	0	1;
	1338	0.0	0.0	1.00	221.5500	110.7750	79.7580	0.9	0.85	1000	-1000	1000	0.1	0.01	0	0	1;
	794	0.0	0.0	1.00	221.4000	110.7000	79.7040	0.9	0.85	1000	-1000	1000	0.1	0.01	0	0	1;
	1121	0.0	0.0	1.00	221.2500	110.6250	79.6500	0.9	0.85	1000	-1000	1000	0.1	0.01	0	0	1;
	718	0.0	0.0	1.00	217.2000	108.6000	78.1920	0.9	0.85	1000	-1000	1000	0.1	0.01	0	0	1;
	953	0.0	0.0	1.00	217.2000	108.6000	78.1920	0.9	0.85	1000	-1000	1000	0.1	0.01	0	0	1;
	38	0.0	0.0	1.00	216.3000	108.1500	77.8680	0.9	0.85	1000	-1000	1000	0.1	0.01	0	0	1;
	320	0.0	0.0	1.00	216.3000	108.1500	77.8680	0.9	0.85	1000	-1000	1000	0.1	0.01	0	0	1;
	1079	0.0	0.0	1.00	215.7000	107.8500	77.6520	0.9	0.85	1000	-1000	1000	0.1	0.01	0	0	1;
	516	0.0	0.0	1.00	215.5500	107.7750	77.5980	0.9	0.85	1000	-1000	1000	0.1	0.01	0	0	1;
	882	0.0	0.0	1.00	215.5500	107.7750	77.5980	0.9	0.85	1000	-1000	1000	0.1	0.01	0	0	1;
	323	0.0	0.0	1.00	215.4000	107.7000	77.5440	0.9	0.85	1000	-1000	1000	0.1	0.01	0	0	1;
	1359	0.0	0.0	1.00	215.2500	107.6250	77.4900	0.9	0.85	1000	-1000	1000	0.1	0.01	0	0	1;
	365	0.0	0.0	1.00	212.7000	106.3500	76.5720	0.9	0.85	1000	-1000	1000	0.1	0.01	0	0	1;
	1043	0.0	0.0	1.00	211.9500	105.9750	76.3020	0.9	0.85	1000	-1000	1000	0.1	0.01	0	0	1;
	313	0.0	0.0	1.00	211.8000	105.9000	76.2480	0.9	0.85	1000	-1000	1000	0.1	0.01	0	0	1;
	524	0.0	0.0	1.00	211.8000	105.9000	76.2480	0.9	0.85	1000	-1000	1000	0.1	0.01	0	0	1;
];

%% branch data
%	fbus	tbus	r	x	b	rateA	rateB	rateC	ratio	angle	status	angmin	angmax
mpc.branch = [
	1833	 1	 0.002607	 0.017462	 0.0324	 540.0	 540.0	 540.0	 0.0	 0.0	 1	 -30.0	 30.0;
	29	 2	 2.1e-05	 0.000125	 0.1386	 737.0	 737.0	 737.0	 0.0	 0.0	 1	 -30.0	 30.0;
	675	 2	 0.000145	 0.001877	 0.0635	 2487.0	 2487.0	 2487.0	 0.0	 0.0	 1	 -30.0	 30.0;
	1271	 2	 0.000319	 0.003234	 0.0838	 1841.0	 1841.0	 1841.0	 0.0	 0.0	 1	 -30.0	 30.0;
	30	 2	 2.1e-05	 0.000125	 0.1386	 737.0	 737.0	 737.0	 0.0	 0.0	 1	 -30.0	 30.0;
...